
---------- Begin Simulation Statistics ----------
sim_seconds                                  0.198296                       # Number of seconds simulated
sim_ticks                                198296287000                       # Number of ticks simulated
final_tick                               198296287000                       # Number of ticks from beginning of simulation (restored from checkpoints and never reset)
sim_freq                                 1000000000000                       # Frequency of simulated ticks
host_inst_rate                                 238235                       # Simulator instruction rate (inst/s)
host_op_rate                                   267866                       # Simulator op (including micro ops) rate (op/s)
host_tick_rate                               80514852                       # Simulator tick rate (ticks/s)
host_mem_usage                                 679564                       # Number of bytes of host memory used
host_seconds                                  2462.85                       # Real time elapsed on the host
sim_insts                                   586737533                       # Number of instructions simulated
sim_ops                                     659715277                       # Number of ops (including micro ops) simulated
system.voltage_domain.voltage                       1                       # Voltage in Volts
system.clk_domain.clock                          1000                       # Clock period in ticks
system.physmem.pwrStateResidencyTicks::UNDEFINED 198296287000                       # Cumulative time (in ticks) in various power states
system.physmem.bytes_read::cpu0.inst            99136                       # Number of bytes read from this memory
system.physmem.bytes_read::cpu0.data           134912                       # Number of bytes read from this memory
system.physmem.bytes_read::cpu1.inst             4160                       # Number of bytes read from this memory
system.physmem.bytes_read::cpu1.data            81664                       # Number of bytes read from this memory
system.physmem.bytes_read::cpu2.inst             9536                       # Number of bytes read from this memory
system.physmem.bytes_read::cpu2.data            71872                       # Number of bytes read from this memory
system.physmem.bytes_read::total               401280                       # Number of bytes read from this memory
system.physmem.bytes_inst_read::cpu0.inst        99136                       # Number of instructions bytes read from this memory
system.physmem.bytes_inst_read::cpu1.inst         4160                       # Number of instructions bytes read from this memory
system.physmem.bytes_inst_read::cpu2.inst         9536                       # Number of instructions bytes read from this memory
system.physmem.bytes_inst_read::total          112832                       # Number of instructions bytes read from this memory
system.physmem.bytes_written::writebacks        49024                       # Number of bytes written to this memory
system.physmem.bytes_written::total             49024                       # Number of bytes written to this memory
system.physmem.num_reads::cpu0.inst              1549                       # Number of read requests responded to by this memory
system.physmem.num_reads::cpu0.data              2108                       # Number of read requests responded to by this memory
system.physmem.num_reads::cpu1.inst                65                       # Number of read requests responded to by this memory
system.physmem.num_reads::cpu1.data              1276                       # Number of read requests responded to by this memory
system.physmem.num_reads::cpu2.inst               149                       # Number of read requests responded to by this memory
system.physmem.num_reads::cpu2.data              1123                       # Number of read requests responded to by this memory
system.physmem.num_reads::total                  6270                       # Number of read requests responded to by this memory
system.physmem.num_writes::writebacks             766                       # Number of write requests responded to by this memory
system.physmem.num_writes::total                  766                       # Number of write requests responded to by this memory
system.physmem.bw_read::cpu0.inst              499939                       # Total read bandwidth from this memory (bytes/s)
system.physmem.bw_read::cpu0.data              680356                       # Total read bandwidth from this memory (bytes/s)
system.physmem.bw_read::cpu1.inst               20979                       # Total read bandwidth from this memory (bytes/s)
system.physmem.bw_read::cpu1.data              411828                       # Total read bandwidth from this memory (bytes/s)
system.physmem.bw_read::cpu2.inst               48090                       # Total read bandwidth from this memory (bytes/s)
system.physmem.bw_read::cpu2.data              362448                       # Total read bandwidth from this memory (bytes/s)
system.physmem.bw_read::total                 2023638                       # Total read bandwidth from this memory (bytes/s)
system.physmem.bw_inst_read::cpu0.inst         499939                       # Instruction read bandwidth from this memory (bytes/s)
system.physmem.bw_inst_read::cpu1.inst          20979                       # Instruction read bandwidth from this memory (bytes/s)
system.physmem.bw_inst_read::cpu2.inst          48090                       # Instruction read bandwidth from this memory (bytes/s)
system.physmem.bw_inst_read::total             569007                       # Instruction read bandwidth from this memory (bytes/s)
system.physmem.bw_write::writebacks            247226                       # Write bandwidth from this memory (bytes/s)
system.physmem.bw_write::total                 247226                       # Write bandwidth from this memory (bytes/s)
system.physmem.bw_total::writebacks            247226                       # Total bandwidth to/from this memory (bytes/s)
system.physmem.bw_total::cpu0.inst             499939                       # Total bandwidth to/from this memory (bytes/s)
system.physmem.bw_total::cpu0.data             680356                       # Total bandwidth to/from this memory (bytes/s)
system.physmem.bw_total::cpu1.inst              20979                       # Total bandwidth to/from this memory (bytes/s)
system.physmem.bw_total::cpu1.data             411828                       # Total bandwidth to/from this memory (bytes/s)
system.physmem.bw_total::cpu2.inst              48090                       # Total bandwidth to/from this memory (bytes/s)
system.physmem.bw_total::cpu2.data             362448                       # Total bandwidth to/from this memory (bytes/s)
system.physmem.bw_total::total                2270865                       # Total bandwidth to/from this memory (bytes/s)
system.pwrStateResidencyTicks::UNDEFINED 198296287000                       # Cumulative time (in ticks) in various power states
system.cpu0.branchPred.lookups               41979223                       # Number of BP lookups
system.cpu0.branchPred.condPredicted         24766884                       # Number of conditional branches predicted
system.cpu0.branchPred.condIncorrect          1017328                       # Number of conditional branches incorrect
system.cpu0.branchPred.BTBLookups            22943146                       # Number of BTB lookups
system.cpu0.branchPred.BTBHits               19890917                       # Number of BTB hits
system.cpu0.branchPred.BTBCorrect                   0                       # Number of correct BTB predictions (this stat may not work properly.
system.cpu0.branchPred.BTBHitPct            86.696554                       # BTB Hit Percentage
system.cpu0.branchPred.usedRAS                5555396                       # Number of times the RAS was used to get a target.
system.cpu0.branchPred.RASInCorrect             92318                       # Number of incorrect RAS predictions.
system.cpu0.branchPred.indirectLookups        1268233                       # Number of indirect predictor lookups.
system.cpu0.branchPred.indirectHits           1261450                       # Number of indirect target hits.
system.cpu0.branchPred.indirectMisses            6783                       # Number of indirect misses.
system.cpu0.branchPredindirectMispredicted        15609                       # Number of mispredicted indirect branches.
system.cpu0.dstage2_mmu.stage2_tlb.walker.pwrStateResidencyTicks::UNDEFINED 198296287000                       # Cumulative time (in ticks) in various power states
system.cpu0.dstage2_mmu.stage2_tlb.walker.walks            0                       # Table walker walks requested
system.cpu0.dstage2_mmu.stage2_tlb.walker.walkRequestOrigin_Requested::Data            0                       # Table walker requests started/completed, data/inst
system.cpu0.dstage2_mmu.stage2_tlb.walker.walkRequestOrigin_Requested::Inst            0                       # Table walker requests started/completed, data/inst
system.cpu0.dstage2_mmu.stage2_tlb.walker.walkRequestOrigin_Requested::total            0                       # Table walker requests started/completed, data/inst
system.cpu0.dstage2_mmu.stage2_tlb.walker.walkRequestOrigin_Completed::Data            0                       # Table walker requests started/completed, data/inst
system.cpu0.dstage2_mmu.stage2_tlb.walker.walkRequestOrigin_Completed::Inst            0                       # Table walker requests started/completed, data/inst
system.cpu0.dstage2_mmu.stage2_tlb.walker.walkRequestOrigin_Completed::total            0                       # Table walker requests started/completed, data/inst
system.cpu0.dstage2_mmu.stage2_tlb.walker.walkRequestOrigin::total            0                       # Table walker requests started/completed, data/inst
system.cpu0.dstage2_mmu.stage2_tlb.inst_hits            0                       # ITB inst hits
system.cpu0.dstage2_mmu.stage2_tlb.inst_misses            0                       # ITB inst misses
system.cpu0.dstage2_mmu.stage2_tlb.read_hits            0                       # DTB read hits
system.cpu0.dstage2_mmu.stage2_tlb.read_misses            0                       # DTB read misses
system.cpu0.dstage2_mmu.stage2_tlb.write_hits            0                       # DTB write hits
system.cpu0.dstage2_mmu.stage2_tlb.write_misses            0                       # DTB write misses
system.cpu0.dstage2_mmu.stage2_tlb.flush_tlb            0                       # Number of times complete TLB was flushed
system.cpu0.dstage2_mmu.stage2_tlb.flush_tlb_mva            0                       # Number of times TLB was flushed by MVA
system.cpu0.dstage2_mmu.stage2_tlb.flush_tlb_mva_asid            0                       # Number of times TLB was flushed by MVA & ASID
system.cpu0.dstage2_mmu.stage2_tlb.flush_tlb_asid            0                       # Number of times TLB was flushed by ASID
system.cpu0.dstage2_mmu.stage2_tlb.flush_entries            0                       # Number of entries that have been flushed from TLB
system.cpu0.dstage2_mmu.stage2_tlb.align_faults            0                       # Number of TLB faults due to alignment restrictions
system.cpu0.dstage2_mmu.stage2_tlb.prefetch_faults            0                       # Number of TLB faults due to prefetch
system.cpu0.dstage2_mmu.stage2_tlb.domain_faults            0                       # Number of TLB faults due to domain restrictions
system.cpu0.dstage2_mmu.stage2_tlb.perms_faults            0                       # Number of TLB faults due to permissions restrictions
system.cpu0.dstage2_mmu.stage2_tlb.read_accesses            0                       # DTB read accesses
system.cpu0.dstage2_mmu.stage2_tlb.write_accesses            0                       # DTB write accesses
system.cpu0.dstage2_mmu.stage2_tlb.inst_accesses            0                       # ITB inst accesses
system.cpu0.dstage2_mmu.stage2_tlb.hits             0                       # DTB hits
system.cpu0.dstage2_mmu.stage2_tlb.misses            0                       # DTB misses
system.cpu0.dstage2_mmu.stage2_tlb.accesses            0                       # DTB accesses
system.cpu0.dtb.walker.pwrStateResidencyTicks::UNDEFINED 198296287000                       # Cumulative time (in ticks) in various power states
system.cpu0.dtb.walker.walks                        0                       # Table walker walks requested
system.cpu0.dtb.walker.walkRequestOrigin_Requested::Data            0                       # Table walker requests started/completed, data/inst
system.cpu0.dtb.walker.walkRequestOrigin_Requested::Inst            0                       # Table walker requests started/completed, data/inst
system.cpu0.dtb.walker.walkRequestOrigin_Requested::total            0                       # Table walker requests started/completed, data/inst
system.cpu0.dtb.walker.walkRequestOrigin_Completed::Data            0                       # Table walker requests started/completed, data/inst
system.cpu0.dtb.walker.walkRequestOrigin_Completed::Inst            0                       # Table walker requests started/completed, data/inst
system.cpu0.dtb.walker.walkRequestOrigin_Completed::total            0                       # Table walker requests started/completed, data/inst
system.cpu0.dtb.walker.walkRequestOrigin::total            0                       # Table walker requests started/completed, data/inst
system.cpu0.dtb.inst_hits                           0                       # ITB inst hits
system.cpu0.dtb.inst_misses                         0                       # ITB inst misses
system.cpu0.dtb.read_hits                           0                       # DTB read hits
system.cpu0.dtb.read_misses                         0                       # DTB read misses
system.cpu0.dtb.write_hits                          0                       # DTB write hits
system.cpu0.dtb.write_misses                        0                       # DTB write misses
system.cpu0.dtb.flush_tlb                           0                       # Number of times complete TLB was flushed
system.cpu0.dtb.flush_tlb_mva                       0                       # Number of times TLB was flushed by MVA
system.cpu0.dtb.flush_tlb_mva_asid                  0                       # Number of times TLB was flushed by MVA & ASID
system.cpu0.dtb.flush_tlb_asid                      0                       # Number of times TLB was flushed by ASID
system.cpu0.dtb.flush_entries                       0                       # Number of entries that have been flushed from TLB
system.cpu0.dtb.align_faults                        0                       # Number of TLB faults due to alignment restrictions
system.cpu0.dtb.prefetch_faults                     0                       # Number of TLB faults due to prefetch
system.cpu0.dtb.domain_faults                       0                       # Number of TLB faults due to domain restrictions
system.cpu0.dtb.perms_faults                        0                       # Number of TLB faults due to permissions restrictions
system.cpu0.dtb.read_accesses                       0                       # DTB read accesses
system.cpu0.dtb.write_accesses                      0                       # DTB write accesses
system.cpu0.dtb.inst_accesses                       0                       # ITB inst accesses
system.cpu0.dtb.hits                                0                       # DTB hits
system.cpu0.dtb.misses                              0                       # DTB misses
system.cpu0.dtb.accesses                            0                       # DTB accesses
system.cpu0.istage2_mmu.stage2_tlb.walker.pwrStateResidencyTicks::UNDEFINED 198296287000                       # Cumulative time (in ticks) in various power states
system.cpu0.istage2_mmu.stage2_tlb.walker.walks            0                       # Table walker walks requested
system.cpu0.istage2_mmu.stage2_tlb.walker.walkRequestOrigin_Requested::Data            0                       # Table walker requests started/completed, data/inst
system.cpu0.istage2_mmu.stage2_tlb.walker.walkRequestOrigin_Requested::Inst            0                       # Table walker requests started/completed, data/inst
system.cpu0.istage2_mmu.stage2_tlb.walker.walkRequestOrigin_Requested::total            0                       # Table walker requests started/completed, data/inst
system.cpu0.istage2_mmu.stage2_tlb.walker.walkRequestOrigin_Completed::Data            0                       # Table walker requests started/completed, data/inst
system.cpu0.istage2_mmu.stage2_tlb.walker.walkRequestOrigin_Completed::Inst            0                       # Table walker requests started/completed, data/inst
system.cpu0.istage2_mmu.stage2_tlb.walker.walkRequestOrigin_Completed::total            0                       # Table walker requests started/completed, data/inst
system.cpu0.istage2_mmu.stage2_tlb.walker.walkRequestOrigin::total            0                       # Table walker requests started/completed, data/inst
system.cpu0.istage2_mmu.stage2_tlb.inst_hits            0                       # ITB inst hits
system.cpu0.istage2_mmu.stage2_tlb.inst_misses            0                       # ITB inst misses
system.cpu0.istage2_mmu.stage2_tlb.read_hits            0                       # DTB read hits
system.cpu0.istage2_mmu.stage2_tlb.read_misses            0                       # DTB read misses
system.cpu0.istage2_mmu.stage2_tlb.write_hits            0                       # DTB write hits
system.cpu0.istage2_mmu.stage2_tlb.write_misses            0                       # DTB write misses
system.cpu0.istage2_mmu.stage2_tlb.flush_tlb            0                       # Number of times complete TLB was flushed
system.cpu0.istage2_mmu.stage2_tlb.flush_tlb_mva            0                       # Number of times TLB was flushed by MVA
system.cpu0.istage2_mmu.stage2_tlb.flush_tlb_mva_asid            0                       # Number of times TLB was flushed by MVA & ASID
system.cpu0.istage2_mmu.stage2_tlb.flush_tlb_asid            0                       # Number of times TLB was flushed by ASID
system.cpu0.istage2_mmu.stage2_tlb.flush_entries            0                       # Number of entries that have been flushed from TLB
system.cpu0.istage2_mmu.stage2_tlb.align_faults            0                       # Number of TLB faults due to alignment restrictions
system.cpu0.istage2_mmu.stage2_tlb.prefetch_faults            0                       # Number of TLB faults due to prefetch
system.cpu0.istage2_mmu.stage2_tlb.domain_faults            0                       # Number of TLB faults due to domain restrictions
system.cpu0.istage2_mmu.stage2_tlb.perms_faults            0                       # Number of TLB faults due to permissions restrictions
system.cpu0.istage2_mmu.stage2_tlb.read_accesses            0                       # DTB read accesses
system.cpu0.istage2_mmu.stage2_tlb.write_accesses            0                       # DTB write accesses
system.cpu0.istage2_mmu.stage2_tlb.inst_accesses            0                       # ITB inst accesses
system.cpu0.istage2_mmu.stage2_tlb.hits             0                       # DTB hits
system.cpu0.istage2_mmu.stage2_tlb.misses            0                       # DTB misses
system.cpu0.istage2_mmu.stage2_tlb.accesses            0                       # DTB accesses
system.cpu0.itb.walker.pwrStateResidencyTicks::UNDEFINED 198296287000                       # Cumulative time (in ticks) in various power states
system.cpu0.itb.walker.walks                        0                       # Table walker walks requested
system.cpu0.itb.walker.walkRequestOrigin_Requested::Data            0                       # Table walker requests started/completed, data/inst
system.cpu0.itb.walker.walkRequestOrigin_Requested::Inst            0                       # Table walker requests started/completed, data/inst
system.cpu0.itb.walker.walkRequestOrigin_Requested::total            0                       # Table walker requests started/completed, data/inst
system.cpu0.itb.walker.walkRequestOrigin_Completed::Data            0                       # Table walker requests started/completed, data/inst
system.cpu0.itb.walker.walkRequestOrigin_Completed::Inst            0                       # Table walker requests started/completed, data/inst
system.cpu0.itb.walker.walkRequestOrigin_Completed::total            0                       # Table walker requests started/completed, data/inst
system.cpu0.itb.walker.walkRequestOrigin::total            0                       # Table walker requests started/completed, data/inst
system.cpu0.itb.inst_hits                           0                       # ITB inst hits
system.cpu0.itb.inst_misses                         0                       # ITB inst misses
system.cpu0.itb.read_hits                           0                       # DTB read hits
system.cpu0.itb.read_misses                         0                       # DTB read misses
system.cpu0.itb.write_hits                          0                       # DTB write hits
system.cpu0.itb.write_misses                        0                       # DTB write misses
system.cpu0.itb.flush_tlb                           0                       # Number of times complete TLB was flushed
system.cpu0.itb.flush_tlb_mva                       0                       # Number of times TLB was flushed by MVA
system.cpu0.itb.flush_tlb_mva_asid                  0                       # Number of times TLB was flushed by MVA & ASID
system.cpu0.itb.flush_tlb_asid                      0                       # Number of times TLB was flushed by ASID
system.cpu0.itb.flush_entries                       0                       # Number of entries that have been flushed from TLB
system.cpu0.itb.align_faults                        0                       # Number of TLB faults due to alignment restrictions
system.cpu0.itb.prefetch_faults                     0                       # Number of TLB faults due to prefetch
system.cpu0.itb.domain_faults                       0                       # Number of TLB faults due to domain restrictions
system.cpu0.itb.perms_faults                        0                       # Number of TLB faults due to permissions restrictions
system.cpu0.itb.read_accesses                       0                       # DTB read accesses
system.cpu0.itb.write_accesses                      0                       # DTB write accesses
system.cpu0.itb.inst_accesses                       0                       # ITB inst accesses
system.cpu0.itb.hits                                0                       # DTB hits
system.cpu0.itb.misses                              0                       # DTB misses
system.cpu0.itb.accesses                            0                       # DTB accesses
system.cpu0.workload.num_syscalls               29520                       # Number of system calls
system.cpu0.pwrStateResidencyTicks::ON   198296287000                       # Cumulative time (in ticks) in various power states
system.cpu0.numCycles                       198296288                       # number of cpu cycles simulated
system.cpu0.numWorkItemsStarted                     0                       # number of work items this cpu started
system.cpu0.numWorkItemsCompleted                   0                       # number of work items this cpu completed
system.cpu0.fetch.icacheStallCycles          39271873                       # Number of cycles fetch is stalled on an Icache miss
system.cpu0.fetch.Insts                     240806926                       # Number of instructions fetch has processed
system.cpu0.fetch.Branches                   41979223                       # Number of branches that fetch encountered
system.cpu0.fetch.predictedBranches          26707763                       # Number of branches that fetch has predicted taken
system.cpu0.fetch.Cycles                    157960469                       # Number of cycles fetch has run and was not squashing or blocked
system.cpu0.fetch.SquashCycles                2043203                       # Number of cycles fetch has spent squashing
system.cpu0.fetch.MiscStallCycles                   1                       # Number of cycles fetch has spent waiting on interrupts, or bad addresses, or out of MSHRs
system.cpu0.fetch.PendingTrapStallCycles          174                       # Number of stall cycles due to pending traps
system.cpu0.fetch.CacheLines                 36769051                       # Number of cache lines fetched
system.cpu0.fetch.IcacheSquashes               209720                       # Number of outstanding Icache misses that were squashed
system.cpu0.fetch.rateDist::samples         198254118                       # Number of instructions fetched each cycle (Total)
system.cpu0.fetch.rateDist::mean             1.371787                       # Number of instructions fetched each cycle (Total)
system.cpu0.fetch.rateDist::stdev            0.856486                       # Number of instructions fetched each cycle (Total)
system.cpu0.fetch.rateDist::underflows              0      0.00%      0.00% # Number of instructions fetched each cycle (Total)
system.cpu0.fetch.rateDist::0                49564270     25.00%     25.00% # Number of instructions fetched each cycle (Total)
system.cpu0.fetch.rateDist::1                25417222     12.82%     37.82% # Number of instructions fetched each cycle (Total)
system.cpu0.fetch.rateDist::2               123272626     62.18%    100.00% # Number of instructions fetched each cycle (Total)
system.cpu0.fetch.rateDist::overflows               0      0.00%    100.00% # Number of instructions fetched each cycle (Total)
system.cpu0.fetch.rateDist::min_value               0                       # Number of instructions fetched each cycle (Total)
system.cpu0.fetch.rateDist::max_value               2                       # Number of instructions fetched each cycle (Total)
system.cpu0.fetch.rateDist::total           198254118                       # Number of instructions fetched each cycle (Total)
system.cpu0.fetch.branchRate                 0.211699                       # Number of branch fetches per cycle
system.cpu0.fetch.rate                       1.214379                       # Number of inst fetches per cycle
system.cpu0.decode.IdleCycles                32332513                       # Number of cycles decode is idle
system.cpu0.decode.BlockedCycles             27077875                       # Number of cycles decode is blocked
system.cpu0.decode.RunCycles                107689883                       # Number of cycles decode is running
system.cpu0.decode.UnblockCycles             30219144                       # Number of cycles decode is unblocking
system.cpu0.decode.SquashCycles                934703                       # Number of cycles decode is squashing
system.cpu0.decode.BranchResolved            12010169                       # Number of times decode resolved a branch
system.cpu0.decode.BranchMispred                88091                       # Number of times decode detected a branch misprediction
system.cpu0.decode.DecodedInsts             266485860                       # Number of instructions handled by decode
system.cpu0.decode.SquashedInsts               132992                       # Number of squashed instructions handled by decode
system.cpu0.rename.SquashCycles                934703                       # Number of cycles rename is squashing
system.cpu0.rename.IdleCycles                39083659                       # Number of cycles rename is idle
system.cpu0.rename.BlockCycles                3209797                       # Number of cycles rename is blocking
system.cpu0.rename.serializeStallCycles        652323                       # count of cycles rename stalled for serializing inst
system.cpu0.rename.RunCycles                131086552                       # Number of cycles rename is running
system.cpu0.rename.UnblockCycles             23287084                       # Number of cycles rename is unblocking
system.cpu0.rename.RenamedInsts             265021761                       # Number of instructions processed by rename
system.cpu0.rename.IQFullEvents              17305017                       # Number of times rename has blocked due to IQ full
system.cpu0.rename.LQFullEvents                 37367                       # Number of times rename has blocked due to LQ full
system.cpu0.rename.SQFullEvents                  1423                       # Number of times rename has blocked due to SQ full
system.cpu0.rename.RenamedOperands          336605593                       # Number of destination operands rename has renamed
system.cpu0.rename.RenameLookups           1229523688                       # Number of register rename lookups that rename has made
system.cpu0.rename.int_rename_lookups       343007940                       # Number of integer rename lookups
system.cpu0.rename.fp_rename_lookups               16                       # Number of floating rename lookups
system.cpu0.rename.CommittedMaps            291024242                       # Number of HB maps that are committed
system.cpu0.rename.UndoneMaps                45581351                       # Number of HB maps that are undone due to squashing
system.cpu0.rename.serializingInsts             22820                       # count of serializing insts renamed
system.cpu0.rename.tempSerializingInsts          2493                       # count of temporary serializing insts renamed
system.cpu0.rename.skidInsts                 26821573                       # count of insts added to the skid buffer
system.cpu0.memDep0.insertedLoads            32648495                       # Number of loads inserted to the mem dependence unit.
system.cpu0.memDep0.insertedStores           20435447                       # Number of stores inserted to the mem dependence unit.
system.cpu0.memDep0.conflictingLoads          8344716                       # Number of conflicting loads.
system.cpu0.memDep0.conflictingStores         3642650                       # Number of conflicting stores.
system.cpu0.iq.iqInstsAdded                 262259747                       # Number of instructions added to the IQ (excludes non-spec)
system.cpu0.iq.iqNonSpecInstsAdded               4239                       # Number of non-speculative instructions added to the IQ
system.cpu0.iq.iqInstsIssued                237435154                       # Number of instructions issued
system.cpu0.iq.iqSquashedInstsIssued          3516716                       # Number of squashed instructions issued
system.cpu0.iq.iqSquashedInstsExamined       29089448                       # Number of squashed instructions iterated over during squash; mainly for profiling
system.cpu0.iq.iqSquashedOperandsExamined    118075263                       # Number of squashed operands that are examined and possibly removed from graph
system.cpu0.iq.iqSquashedNonSpecRemoved           402                       # Number of squashed non-spec instructions that were removed
system.cpu0.iq.issued_per_cycle::samples    198254118                       # Number of insts issued each cycle
system.cpu0.iq.issued_per_cycle::mean        1.197630                       # Number of insts issued each cycle
system.cpu0.iq.issued_per_cycle::stdev       0.517652                       # Number of insts issued each cycle
system.cpu0.iq.issued_per_cycle::underflows            0      0.00%      0.00% # Number of insts issued each cycle
system.cpu0.iq.issued_per_cycle::0           10843590      5.47%      5.47% # Number of insts issued each cycle
system.cpu0.iq.issued_per_cycle::1          137385902     69.30%     74.77% # Number of insts issued each cycle
system.cpu0.iq.issued_per_cycle::2           50024626     25.23%    100.00% # Number of insts issued each cycle
system.cpu0.iq.issued_per_cycle::overflows            0      0.00%    100.00% # Number of insts issued each cycle
system.cpu0.iq.issued_per_cycle::min_value            0                       # Number of insts issued each cycle
system.cpu0.iq.issued_per_cycle::max_value            2                       # Number of insts issued each cycle
system.cpu0.iq.issued_per_cycle::total      198254118                       # Number of insts issued each cycle
system.cpu0.iq.fu_full::No_OpClass                  0      0.00%      0.00% # attempts to use FU when none available
system.cpu0.iq.fu_full::IntAlu              146968226     95.91%     95.91% # attempts to use FU when none available
system.cpu0.iq.fu_full::IntMult                     0      0.00%     95.91% # attempts to use FU when none available
system.cpu0.iq.fu_full::IntDiv                      0      0.00%     95.91% # attempts to use FU when none available
system.cpu0.iq.fu_full::FloatAdd                    0      0.00%     95.91% # attempts to use FU when none available
system.cpu0.iq.fu_full::FloatCmp                    0      0.00%     95.91% # attempts to use FU when none available
system.cpu0.iq.fu_full::FloatCvt                    0      0.00%     95.91% # attempts to use FU when none available
system.cpu0.iq.fu_full::FloatMult                   0      0.00%     95.91% # attempts to use FU when none available
system.cpu0.iq.fu_full::FloatMultAcc                0      0.00%     95.91% # attempts to use FU when none available
system.cpu0.iq.fu_full::FloatDiv                    0      0.00%     95.91% # attempts to use FU when none available
system.cpu0.iq.fu_full::FloatMisc                   0      0.00%     95.91% # attempts to use FU when none available
system.cpu0.iq.fu_full::FloatSqrt                   0      0.00%     95.91% # attempts to use FU when none available
system.cpu0.iq.fu_full::SimdAdd                     0      0.00%     95.91% # attempts to use FU when none available
system.cpu0.iq.fu_full::SimdAddAcc                  0      0.00%     95.91% # attempts to use FU when none available
system.cpu0.iq.fu_full::SimdAlu                     0      0.00%     95.91% # attempts to use FU when none available
system.cpu0.iq.fu_full::SimdCmp                     0      0.00%     95.91% # attempts to use FU when none available
system.cpu0.iq.fu_full::SimdCvt                     0      0.00%     95.91% # attempts to use FU when none available
system.cpu0.iq.fu_full::SimdMisc                    0      0.00%     95.91% # attempts to use FU when none available
system.cpu0.iq.fu_full::SimdMult                    0      0.00%     95.91% # attempts to use FU when none available
system.cpu0.iq.fu_full::SimdMultAcc                 0      0.00%     95.91% # attempts to use FU when none available
system.cpu0.iq.fu_full::SimdShift                   0      0.00%     95.91% # attempts to use FU when none available
system.cpu0.iq.fu_full::SimdShiftAcc                0      0.00%     95.91% # attempts to use FU when none available
system.cpu0.iq.fu_full::SimdSqrt                    0      0.00%     95.91% # attempts to use FU when none available
system.cpu0.iq.fu_full::SimdFloatAdd                0      0.00%     95.91% # attempts to use FU when none available
system.cpu0.iq.fu_full::SimdFloatAlu                0      0.00%     95.91% # attempts to use FU when none available
system.cpu0.iq.fu_full::SimdFloatCmp                0      0.00%     95.91% # attempts to use FU when none available
system.cpu0.iq.fu_full::SimdFloatCvt                0      0.00%     95.91% # attempts to use FU when none available
system.cpu0.iq.fu_full::SimdFloatDiv                0      0.00%     95.91% # attempts to use FU when none available
system.cpu0.iq.fu_full::SimdFloatMisc               0      0.00%     95.91% # attempts to use FU when none available
system.cpu0.iq.fu_full::SimdFloatMult               0      0.00%     95.91% # attempts to use FU when none available
system.cpu0.iq.fu_full::SimdFloatMultAcc            0      0.00%     95.91% # attempts to use FU when none available
system.cpu0.iq.fu_full::SimdFloatSqrt               0      0.00%     95.91% # attempts to use FU when none available
system.cpu0.iq.fu_full::MemRead               4061441      2.65%     98.56% # attempts to use FU when none available
system.cpu0.iq.fu_full::MemWrite              2204646      1.44%    100.00% # attempts to use FU when none available
system.cpu0.iq.fu_full::FloatMemRead                0      0.00%    100.00% # attempts to use FU when none available
system.cpu0.iq.fu_full::FloatMemWrite               0      0.00%    100.00% # attempts to use FU when none available
system.cpu0.iq.fu_full::IprAccess                   0      0.00%    100.00% # attempts to use FU when none available
system.cpu0.iq.fu_full::InstPrefetch                0      0.00%    100.00% # attempts to use FU when none available
system.cpu0.iq.FU_type_0::No_OpClass                0      0.00%      0.00% # Type of FU issued
system.cpu0.iq.FU_type_0::IntAlu            185255864     78.02%     78.02% # Type of FU issued
system.cpu0.iq.FU_type_0::IntMult             1326666      0.56%     78.58% # Type of FU issued
system.cpu0.iq.FU_type_0::IntDiv                    0      0.00%     78.58% # Type of FU issued
system.cpu0.iq.FU_type_0::FloatAdd                  0      0.00%     78.58% # Type of FU issued
system.cpu0.iq.FU_type_0::FloatCmp                  0      0.00%     78.58% # Type of FU issued
system.cpu0.iq.FU_type_0::FloatCvt                  0      0.00%     78.58% # Type of FU issued
system.cpu0.iq.FU_type_0::FloatMult                 0      0.00%     78.58% # Type of FU issued
system.cpu0.iq.FU_type_0::FloatMultAcc              0      0.00%     78.58% # Type of FU issued
system.cpu0.iq.FU_type_0::FloatDiv                  0      0.00%     78.58% # Type of FU issued
system.cpu0.iq.FU_type_0::FloatMisc                 0      0.00%     78.58% # Type of FU issued
system.cpu0.iq.FU_type_0::FloatSqrt                 0      0.00%     78.58% # Type of FU issued
system.cpu0.iq.FU_type_0::SimdAdd                   0      0.00%     78.58% # Type of FU issued
system.cpu0.iq.FU_type_0::SimdAddAcc                0      0.00%     78.58% # Type of FU issued
system.cpu0.iq.FU_type_0::SimdAlu                   0      0.00%     78.58% # Type of FU issued
system.cpu0.iq.FU_type_0::SimdCmp                   0      0.00%     78.58% # Type of FU issued
system.cpu0.iq.FU_type_0::SimdCvt                   0      0.00%     78.58% # Type of FU issued
system.cpu0.iq.FU_type_0::SimdMisc                  0      0.00%     78.58% # Type of FU issued
system.cpu0.iq.FU_type_0::SimdMult                  0      0.00%     78.58% # Type of FU issued
system.cpu0.iq.FU_type_0::SimdMultAcc               0      0.00%     78.58% # Type of FU issued
system.cpu0.iq.FU_type_0::SimdShift                 0      0.00%     78.58% # Type of FU issued
system.cpu0.iq.FU_type_0::SimdShiftAcc              0      0.00%     78.58% # Type of FU issued
system.cpu0.iq.FU_type_0::SimdSqrt                  0      0.00%     78.58% # Type of FU issued
system.cpu0.iq.FU_type_0::SimdFloatAdd              0      0.00%     78.58% # Type of FU issued
system.cpu0.iq.FU_type_0::SimdFloatAlu              0      0.00%     78.58% # Type of FU issued
system.cpu0.iq.FU_type_0::SimdFloatCmp              0      0.00%     78.58% # Type of FU issued
system.cpu0.iq.FU_type_0::SimdFloatCvt              0      0.00%     78.58% # Type of FU issued
system.cpu0.iq.FU_type_0::SimdFloatDiv              0      0.00%     78.58% # Type of FU issued
system.cpu0.iq.FU_type_0::SimdFloatMisc         20318      0.01%     78.59% # Type of FU issued
system.cpu0.iq.FU_type_0::SimdFloatMult             0      0.00%     78.59% # Type of FU issued
system.cpu0.iq.FU_type_0::SimdFloatMultAcc            0      0.00%     78.59% # Type of FU issued
system.cpu0.iq.FU_type_0::SimdFloatSqrt             0      0.00%     78.59% # Type of FU issued
system.cpu0.iq.FU_type_0::MemRead            31627361     13.32%     91.91% # Type of FU issued
system.cpu0.iq.FU_type_0::MemWrite           19204929      8.09%    100.00% # Type of FU issued
system.cpu0.iq.FU_type_0::FloatMemRead              0      0.00%    100.00% # Type of FU issued
system.cpu0.iq.FU_type_0::FloatMemWrite            16      0.00%    100.00% # Type of FU issued
system.cpu0.iq.FU_type_0::IprAccess                 0      0.00%    100.00% # Type of FU issued
system.cpu0.iq.FU_type_0::InstPrefetch              0      0.00%    100.00% # Type of FU issued
system.cpu0.iq.FU_type_0::total             237435154                       # Type of FU issued
system.cpu0.iq.rate                          1.197376                       # Inst issue rate
system.cpu0.iq.fu_busy_cnt                  153234313                       # FU busy when requested
system.cpu0.iq.fu_busy_rate                  0.645373                       # FU busy rate (busy events/executed inst)
system.cpu0.iq.int_inst_queue_reads         829875423                       # Number of integer instruction queue reads
system.cpu0.iq.int_inst_queue_writes        291357639                       # Number of integer instruction queue writes
system.cpu0.iq.int_inst_queue_wakeup_accesses    236641342                       # Number of integer instruction queue wakeup accesses
system.cpu0.iq.fp_inst_queue_reads                 32                       # Number of floating instruction queue reads
system.cpu0.iq.fp_inst_queue_writes                16                       # Number of floating instruction queue writes
system.cpu0.iq.fp_inst_queue_wakeup_accesses           16                       # Number of floating instruction queue wakeup accesses
system.cpu0.iq.int_alu_accesses             390669451                       # Number of integer alu accesses
system.cpu0.iq.fp_alu_accesses                     16                       # Number of floating point alu accesses
system.cpu0.iew.lsq.thread0.forwLoads         4818368                       # Number of loads that had data forwarded from stores
system.cpu0.iew.lsq.thread0.invAddrLoads            0                       # Number of loads ignored due to an invalid address
system.cpu0.iew.lsq.thread0.squashedLoads      2406938                       # Number of loads squashed
system.cpu0.iew.lsq.thread0.ignoredResponses          567                       # Number of memory responses ignored because the instruction is squashed
system.cpu0.iew.lsq.thread0.memOrderViolation         4265                       # Number of memory ordering violations
system.cpu0.iew.lsq.thread0.squashedStores      1611377                       # Number of stores squashed
system.cpu0.iew.lsq.thread0.invAddrSwpfs            0                       # Number of software prefetches ignored due to an invalid address
system.cpu0.iew.lsq.thread0.blockedLoads            0                       # Number of blocked loads due to partial load-store forwarding
system.cpu0.iew.lsq.thread0.rescheduledLoads       339238                       # Number of loads that were rescheduled
system.cpu0.iew.lsq.thread0.cacheBlocked          126                       # Number of times an access to memory failed due to the cache being blocked
system.cpu0.iew.iewIdleCycles                       0                       # Number of cycles IEW is idle
system.cpu0.iew.iewSquashCycles                934703                       # Number of cycles IEW is squashing
system.cpu0.iew.iewBlockCycles                3084874                       # Number of cycles IEW is blocking
system.cpu0.iew.iewUnblockCycles                21242                       # Number of cycles IEW is unblocking
system.cpu0.iew.iewDispatchedInsts          262264035                       # Number of instructions dispatched to IQ
system.cpu0.iew.iewDispSquashedInsts           174670                       # Number of squashed instructions skipped by dispatch
system.cpu0.iew.iewDispLoadInsts             32648495                       # Number of dispatched load instructions
system.cpu0.iew.iewDispStoreInsts            20435447                       # Number of dispatched store instructions
system.cpu0.iew.iewDispNonSpecInsts              2394                       # Number of dispatched non-speculative instructions
system.cpu0.iew.iewIQFullEvents                    82                       # Number of times the IQ has become full, causing a stall
system.cpu0.iew.iewLSQFullEvents                   48                       # Number of times the LSQ has become full, causing a stall
system.cpu0.iew.memOrderViolationEvents          4265                       # Number of memory order violations
system.cpu0.iew.predictedTakenIncorrect        493245                       # Number of branches that were predicted taken incorrectly
system.cpu0.iew.predictedNotTakenIncorrect       495618                       # Number of branches that were predicted not taken incorrectly
system.cpu0.iew.branchMispredicts              988863                       # Number of branch mispredicts detected at execute
system.cpu0.iew.iewExecutedInsts            237132183                       # Number of executed instructions
system.cpu0.iew.iewExecLoadInsts             31531726                       # Number of load instructions executed
system.cpu0.iew.iewExecSquashedInsts           302971                       # Number of squashed instructions skipped in execute
system.cpu0.iew.exec_swp                            0                       # number of swp insts executed
system.cpu0.iew.exec_nop                           49                       # number of nop insts executed
system.cpu0.iew.exec_refs                    50685885                       # number of memory reference insts executed
system.cpu0.iew.exec_branches                36368408                       # Number of branches executed
system.cpu0.iew.exec_stores                  19154159                       # Number of stores executed
system.cpu0.iew.exec_rate                    1.195848                       # Inst execution rate
system.cpu0.iew.wb_sent                     236671822                       # cumulative count of insts sent to commit
system.cpu0.iew.wb_count                    236641358                       # cumulative count of insts written-back
system.cpu0.iew.wb_producers                175750758                       # num instructions producing a value
system.cpu0.iew.wb_consumers                413870939                       # num instructions consuming a value
system.cpu0.iew.wb_rate                      1.193373                       # insts written-back per cycle
system.cpu0.iew.wb_fanout                    0.424651                       # average fanout of values written-back
system.cpu0.commit.commitSquashedInsts       29089499                       # The number of squashed insts skipped by commit
system.cpu0.commit.commitNonSpecStalls           3837                       # The number of times commit has been forced to stall to communicate backwards
system.cpu0.commit.branchMispredicts           930430                       # The number of times a branch was mispredicted
system.cpu0.commit.committed_per_cycle::samples    194238750                       # Number of insts commited each cycle
system.cpu0.commit.committed_per_cycle::mean     1.200453                       # Number of insts commited each cycle
system.cpu0.commit.committed_per_cycle::stdev     1.074078                       # Number of insts commited each cycle
system.cpu0.commit.committed_per_cycle::underflows            0      0.00%      0.00% # Number of insts commited each cycle
system.cpu0.commit.committed_per_cycle::0     20142529     10.37%     10.37% # Number of insts commited each cycle
system.cpu0.commit.committed_per_cycle::1    144990006     74.65%     85.02% # Number of insts commited each cycle
system.cpu0.commit.committed_per_cycle::2     18337001      9.44%     94.46% # Number of insts commited each cycle
system.cpu0.commit.committed_per_cycle::3      4257805      2.19%     96.65% # Number of insts commited each cycle
system.cpu0.commit.committed_per_cycle::4      2323837      1.20%     97.84% # Number of insts commited each cycle
system.cpu0.commit.committed_per_cycle::5       411675      0.21%     98.06% # Number of insts commited each cycle
system.cpu0.commit.committed_per_cycle::6       282631      0.15%     98.20% # Number of insts commited each cycle
system.cpu0.commit.committed_per_cycle::7      2258522      1.16%     99.36% # Number of insts commited each cycle
system.cpu0.commit.committed_per_cycle::8      1234744      0.64%    100.00% # Number of insts commited each cycle
system.cpu0.commit.committed_per_cycle::overflows            0      0.00%    100.00% # Number of insts commited each cycle
system.cpu0.commit.committed_per_cycle::min_value            0                       # Number of insts commited each cycle
system.cpu0.commit.committed_per_cycle::max_value            8                       # Number of insts commited each cycle
system.cpu0.commit.committed_per_cycle::total    194238750                       # Number of insts commited each cycle
system.cpu0.commit.committedInsts           206473015                       # Number of instructions committed
system.cpu0.commit.committedOps             233174538                       # Number of ops (including micro ops) committed
system.cpu0.commit.swp_count                        0                       # Number of s/w prefetches committed
system.cpu0.commit.refs                      49065627                       # Number of memory references committed
system.cpu0.commit.loads                     30241557                       # Number of loads committed
system.cpu0.commit.membars                       1841                       # Number of memory barriers committed
system.cpu0.commit.branches                  36033377                       # Number of branches committed
system.cpu0.commit.fp_insts                        16                       # Number of committed floating point instructions.
system.cpu0.commit.int_insts                212306949                       # Number of committed integer instructions.
system.cpu0.commit.function_calls             6352844                       # Number of function calls committed.
system.cpu0.commit.op_class_0::No_OpClass            0      0.00%      0.00% # Class of committed instruction
system.cpu0.commit.op_class_0::IntAlu       182810766     78.40%     78.40% # Class of committed instruction
system.cpu0.commit.op_class_0::IntMult        1277827      0.55%     78.95% # Class of committed instruction
system.cpu0.commit.op_class_0::IntDiv               0      0.00%     78.95% # Class of committed instruction
system.cpu0.commit.op_class_0::FloatAdd             0      0.00%     78.95% # Class of committed instruction
system.cpu0.commit.op_class_0::FloatCmp             0      0.00%     78.95% # Class of committed instruction
system.cpu0.commit.op_class_0::FloatCvt             0      0.00%     78.95% # Class of committed instruction
system.cpu0.commit.op_class_0::FloatMult            0      0.00%     78.95% # Class of committed instruction
system.cpu0.commit.op_class_0::FloatMultAcc            0      0.00%     78.95% # Class of committed instruction
system.cpu0.commit.op_class_0::FloatDiv             0      0.00%     78.95% # Class of committed instruction
system.cpu0.commit.op_class_0::FloatMisc            0      0.00%     78.95% # Class of committed instruction
system.cpu0.commit.op_class_0::FloatSqrt            0      0.00%     78.95% # Class of committed instruction
system.cpu0.commit.op_class_0::SimdAdd              0      0.00%     78.95% # Class of committed instruction
system.cpu0.commit.op_class_0::SimdAddAcc            0      0.00%     78.95% # Class of committed instruction
system.cpu0.commit.op_class_0::SimdAlu              0      0.00%     78.95% # Class of committed instruction
system.cpu0.commit.op_class_0::SimdCmp              0      0.00%     78.95% # Class of committed instruction
system.cpu0.commit.op_class_0::SimdCvt              0      0.00%     78.95% # Class of committed instruction
system.cpu0.commit.op_class_0::SimdMisc             0      0.00%     78.95% # Class of committed instruction
system.cpu0.commit.op_class_0::SimdMult             0      0.00%     78.95% # Class of committed instruction
system.cpu0.commit.op_class_0::SimdMultAcc            0      0.00%     78.95% # Class of committed instruction
system.cpu0.commit.op_class_0::SimdShift            0      0.00%     78.95% # Class of committed instruction
system.cpu0.commit.op_class_0::SimdShiftAcc            0      0.00%     78.95% # Class of committed instruction
system.cpu0.commit.op_class_0::SimdSqrt             0      0.00%     78.95% # Class of committed instruction
system.cpu0.commit.op_class_0::SimdFloatAdd            0      0.00%     78.95% # Class of committed instruction
system.cpu0.commit.op_class_0::SimdFloatAlu            0      0.00%     78.95% # Class of committed instruction
system.cpu0.commit.op_class_0::SimdFloatCmp            0      0.00%     78.95% # Class of committed instruction
system.cpu0.commit.op_class_0::SimdFloatCvt            0      0.00%     78.95% # Class of committed instruction
system.cpu0.commit.op_class_0::SimdFloatDiv            0      0.00%     78.95% # Class of committed instruction
system.cpu0.commit.op_class_0::SimdFloatMisc        20318      0.01%     78.96% # Class of committed instruction
system.cpu0.commit.op_class_0::SimdFloatMult            0      0.00%     78.96% # Class of committed instruction
system.cpu0.commit.op_class_0::SimdFloatMultAcc            0      0.00%     78.96% # Class of committed instruction
system.cpu0.commit.op_class_0::SimdFloatSqrt            0      0.00%     78.96% # Class of committed instruction
system.cpu0.commit.op_class_0::MemRead       30241557     12.97%     91.93% # Class of committed instruction
system.cpu0.commit.op_class_0::MemWrite      18824054      8.07%    100.00% # Class of committed instruction
system.cpu0.commit.op_class_0::FloatMemRead            0      0.00%    100.00% # Class of committed instruction
system.cpu0.commit.op_class_0::FloatMemWrite           16      0.00%    100.00% # Class of committed instruction
system.cpu0.commit.op_class_0::IprAccess            0      0.00%    100.00% # Class of committed instruction
system.cpu0.commit.op_class_0::InstPrefetch            0      0.00%    100.00% # Class of committed instruction
system.cpu0.commit.op_class_0::total        233174538                       # Class of committed instruction
system.cpu0.commit.bw_lim_events              1234744                       # number cycles where commit BW limit reached
system.cpu0.rob.rob_reads                   455260188                       # The number of ROB reads
system.cpu0.rob.rob_writes                  528544107                       # The number of ROB writes
system.cpu0.timesIdled                           2075                       # Number of times that the entire CPU went into an idle state and unscheduled itself
system.cpu0.idleCycles                          42170                       # Total number of cycles that the CPU has spent unscheduled due to idling
system.cpu0.committedInsts                  206473015                       # Number of Instructions Simulated
system.cpu0.committedOps                    233174538                       # Number of Ops (including micro ops) Simulated
system.cpu0.cpi                              0.960398                       # CPI: Cycles Per Instruction
system.cpu0.cpi_total                        0.960398                       # CPI: Total CPI of All Threads
system.cpu0.ipc                              1.041235                       # IPC: Instructions Per Cycle
system.cpu0.ipc_total                        1.041235                       # IPC: Total IPC of All Threads
system.cpu0.int_regfile_reads               280811069                       # number of integer regfile reads
system.cpu0.int_regfile_writes              167920840                       # number of integer regfile writes
system.cpu0.fp_regfile_reads                      336                       # number of floating regfile reads
system.cpu0.cc_regfile_reads                813570894                       # number of cc regfile reads
system.cpu0.cc_regfile_writes               123351897                       # number of cc regfile writes
system.cpu0.misc_regfile_reads               49601129                       # number of misc regfile reads
system.cpu0.misc_regfile_writes                  2865                       # number of misc regfile writes
system.cpu0.dcache.tags.pwrStateResidencyTicks::UNDEFINED 198296287000                       # Cumulative time (in ticks) in various power states
system.cpu0.dcache.tags.replacements             5335                       # number of replacements
system.cpu0.dcache.tags.tagsinuse          503.248414                       # Cycle average of tags in use
system.cpu0.dcache.tags.total_refs           44064983                       # Total number of references to valid blocks.
system.cpu0.dcache.tags.sampled_refs             5843                       # Sample count of references to valid blocks.
system.cpu0.dcache.tags.avg_refs          7541.499743                       # Average number of references to valid blocks.
system.cpu0.dcache.tags.warmup_cycle      39109584000                       # Cycle when the warmup percentage was hit.
system.cpu0.dcache.tags.occ_blocks::cpu0.data   503.248414                       # Average occupied blocks per requestor
system.cpu0.dcache.tags.occ_percent::cpu0.data     0.982907                       # Average percentage of cache occupancy
system.cpu0.dcache.tags.occ_percent::total     0.982907                       # Average percentage of cache occupancy
system.cpu0.dcache.tags.occ_task_id_blocks::1024          508                       # Occupied blocks per task id
system.cpu0.dcache.tags.age_task_id_blocks_1024::0           25                       # Occupied blocks per task id
system.cpu0.dcache.tags.age_task_id_blocks_1024::1           66                       # Occupied blocks per task id
system.cpu0.dcache.tags.age_task_id_blocks_1024::2           30                       # Occupied blocks per task id
system.cpu0.dcache.tags.age_task_id_blocks_1024::3          130                       # Occupied blocks per task id
system.cpu0.dcache.tags.age_task_id_blocks_1024::4          257                       # Occupied blocks per task id
system.cpu0.dcache.tags.occ_task_id_percent::1024     0.992188                       # Percentage of cache occupancy per task id
system.cpu0.dcache.tags.tag_accesses         88160394                       # Number of tag accesses
system.cpu0.dcache.tags.data_accesses        88160394                       # Number of data accesses
system.cpu0.dcache.pwrStateResidencyTicks::UNDEFINED 198296287000                       # Cumulative time (in ticks) in various power states
system.cpu0.dcache.ReadReq_hits::cpu0.data     25396774                       # number of ReadReq hits
system.cpu0.dcache.ReadReq_hits::total       25396774                       # number of ReadReq hits
system.cpu0.dcache.WriteReq_hits::cpu0.data     18665217                       # number of WriteReq hits
system.cpu0.dcache.WriteReq_hits::total      18665217                       # number of WriteReq hits
system.cpu0.dcache.LoadLockedReq_hits::cpu0.data         1380                       # number of LoadLockedReq hits
system.cpu0.dcache.LoadLockedReq_hits::total         1380                       # number of LoadLockedReq hits
system.cpu0.dcache.StoreCondReq_hits::cpu0.data         1280                       # number of StoreCondReq hits
system.cpu0.dcache.StoreCondReq_hits::total         1280                       # number of StoreCondReq hits
system.cpu0.dcache.demand_hits::cpu0.data     44061991                       # number of demand (read+write) hits
system.cpu0.dcache.demand_hits::total        44061991                       # number of demand (read+write) hits
system.cpu0.dcache.overall_hits::cpu0.data     44061991                       # number of overall hits
system.cpu0.dcache.overall_hits::total       44061991                       # number of overall hits
system.cpu0.dcache.ReadReq_misses::cpu0.data         5478                       # number of ReadReq misses
system.cpu0.dcache.ReadReq_misses::total         5478                       # number of ReadReq misses
system.cpu0.dcache.WriteReq_misses::cpu0.data         6895                       # number of WriteReq misses
system.cpu0.dcache.WriteReq_misses::total         6895                       # number of WriteReq misses
system.cpu0.dcache.LoadLockedReq_misses::cpu0.data            8                       # number of LoadLockedReq misses
system.cpu0.dcache.LoadLockedReq_misses::total            8                       # number of LoadLockedReq misses
system.cpu0.dcache.StoreCondReq_misses::cpu0.data           96                       # number of StoreCondReq misses
system.cpu0.dcache.StoreCondReq_misses::total           96                       # number of StoreCondReq misses
system.cpu0.dcache.demand_misses::cpu0.data        12373                       # number of demand (read+write) misses
system.cpu0.dcache.demand_misses::total         12373                       # number of demand (read+write) misses
system.cpu0.dcache.overall_misses::cpu0.data        12373                       # number of overall misses
system.cpu0.dcache.overall_misses::total        12373                       # number of overall misses
system.cpu0.dcache.ReadReq_miss_latency::cpu0.data    150803000                       # number of ReadReq miss cycles
system.cpu0.dcache.ReadReq_miss_latency::total    150803000                       # number of ReadReq miss cycles
system.cpu0.dcache.WriteReq_miss_latency::cpu0.data    276205493                       # number of WriteReq miss cycles
system.cpu0.dcache.WriteReq_miss_latency::total    276205493                       # number of WriteReq miss cycles
system.cpu0.dcache.LoadLockedReq_miss_latency::cpu0.data       162000                       # number of LoadLockedReq miss cycles
system.cpu0.dcache.LoadLockedReq_miss_latency::total       162000                       # number of LoadLockedReq miss cycles
system.cpu0.dcache.StoreCondReq_miss_latency::cpu0.data      1039000                       # number of StoreCondReq miss cycles
system.cpu0.dcache.StoreCondReq_miss_latency::total      1039000                       # number of StoreCondReq miss cycles
system.cpu0.dcache.StoreCondFailReq_miss_latency::cpu0.data        19000                       # number of StoreCondFailReq miss cycles
system.cpu0.dcache.StoreCondFailReq_miss_latency::total        19000                       # number of StoreCondFailReq miss cycles
system.cpu0.dcache.demand_miss_latency::cpu0.data    427008493                       # number of demand (read+write) miss cycles
system.cpu0.dcache.demand_miss_latency::total    427008493                       # number of demand (read+write) miss cycles
system.cpu0.dcache.overall_miss_latency::cpu0.data    427008493                       # number of overall miss cycles
system.cpu0.dcache.overall_miss_latency::total    427008493                       # number of overall miss cycles
system.cpu0.dcache.ReadReq_accesses::cpu0.data     25402252                       # number of ReadReq accesses(hits+misses)
system.cpu0.dcache.ReadReq_accesses::total     25402252                       # number of ReadReq accesses(hits+misses)
system.cpu0.dcache.WriteReq_accesses::cpu0.data     18672112                       # number of WriteReq accesses(hits+misses)
system.cpu0.dcache.WriteReq_accesses::total     18672112                       # number of WriteReq accesses(hits+misses)
system.cpu0.dcache.LoadLockedReq_accesses::cpu0.data         1388                       # number of LoadLockedReq accesses(hits+misses)
system.cpu0.dcache.LoadLockedReq_accesses::total         1388                       # number of LoadLockedReq accesses(hits+misses)
system.cpu0.dcache.StoreCondReq_accesses::cpu0.data         1376                       # number of StoreCondReq accesses(hits+misses)
system.cpu0.dcache.StoreCondReq_accesses::total         1376                       # number of StoreCondReq accesses(hits+misses)
system.cpu0.dcache.demand_accesses::cpu0.data     44074364                       # number of demand (read+write) accesses
system.cpu0.dcache.demand_accesses::total     44074364                       # number of demand (read+write) accesses
system.cpu0.dcache.overall_accesses::cpu0.data     44074364                       # number of overall (read+write) accesses
system.cpu0.dcache.overall_accesses::total     44074364                       # number of overall (read+write) accesses
system.cpu0.dcache.ReadReq_miss_rate::cpu0.data     0.000216                       # miss rate for ReadReq accesses
system.cpu0.dcache.ReadReq_miss_rate::total     0.000216                       # miss rate for ReadReq accesses
system.cpu0.dcache.WriteReq_miss_rate::cpu0.data     0.000369                       # miss rate for WriteReq accesses
system.cpu0.dcache.WriteReq_miss_rate::total     0.000369                       # miss rate for WriteReq accesses
system.cpu0.dcache.LoadLockedReq_miss_rate::cpu0.data     0.005764                       # miss rate for LoadLockedReq accesses
system.cpu0.dcache.LoadLockedReq_miss_rate::total     0.005764                       # miss rate for LoadLockedReq accesses
system.cpu0.dcache.StoreCondReq_miss_rate::cpu0.data     0.069767                       # miss rate for StoreCondReq accesses
system.cpu0.dcache.StoreCondReq_miss_rate::total     0.069767                       # miss rate for StoreCondReq accesses
system.cpu0.dcache.demand_miss_rate::cpu0.data     0.000281                       # miss rate for demand accesses
system.cpu0.dcache.demand_miss_rate::total     0.000281                       # miss rate for demand accesses
system.cpu0.dcache.overall_miss_rate::cpu0.data     0.000281                       # miss rate for overall accesses
system.cpu0.dcache.overall_miss_rate::total     0.000281                       # miss rate for overall accesses
system.cpu0.dcache.ReadReq_avg_miss_latency::cpu0.data 27528.842643                       # average ReadReq miss latency
system.cpu0.dcache.ReadReq_avg_miss_latency::total 27528.842643                       # average ReadReq miss latency
system.cpu0.dcache.WriteReq_avg_miss_latency::cpu0.data 40058.809717                       # average WriteReq miss latency
system.cpu0.dcache.WriteReq_avg_miss_latency::total 40058.809717                       # average WriteReq miss latency
system.cpu0.dcache.LoadLockedReq_avg_miss_latency::cpu0.data        20250                       # average LoadLockedReq miss latency
system.cpu0.dcache.LoadLockedReq_avg_miss_latency::total        20250                       # average LoadLockedReq miss latency
system.cpu0.dcache.StoreCondReq_avg_miss_latency::cpu0.data 10822.916667                       # average StoreCondReq miss latency
system.cpu0.dcache.StoreCondReq_avg_miss_latency::total 10822.916667                       # average StoreCondReq miss latency
system.cpu0.dcache.StoreCondFailReq_avg_miss_latency::cpu0.data          inf                       # average StoreCondFailReq miss latency
system.cpu0.dcache.StoreCondFailReq_avg_miss_latency::total          inf                       # average StoreCondFailReq miss latency
system.cpu0.dcache.demand_avg_miss_latency::cpu0.data 34511.314394                       # average overall miss latency
system.cpu0.dcache.demand_avg_miss_latency::total 34511.314394                       # average overall miss latency
system.cpu0.dcache.overall_avg_miss_latency::cpu0.data 34511.314394                       # average overall miss latency
system.cpu0.dcache.overall_avg_miss_latency::total 34511.314394                       # average overall miss latency
system.cpu0.dcache.blocked_cycles::no_mshrs          430                       # number of cycles access was blocked
system.cpu0.dcache.blocked_cycles::no_targets            0                       # number of cycles access was blocked
system.cpu0.dcache.blocked::no_mshrs               19                       # number of cycles access was blocked
system.cpu0.dcache.blocked::no_targets              0                       # number of cycles access was blocked
system.cpu0.dcache.avg_blocked_cycles::no_mshrs    22.631579                       # average number of cycles each access was blocked
system.cpu0.dcache.avg_blocked_cycles::no_targets          nan                       # average number of cycles each access was blocked
system.cpu0.dcache.writebacks::writebacks         3632                       # number of writebacks
system.cpu0.dcache.writebacks::total             3632                       # number of writebacks
system.cpu0.dcache.ReadReq_mshr_hits::cpu0.data         2701                       # number of ReadReq MSHR hits
system.cpu0.dcache.ReadReq_mshr_hits::total         2701                       # number of ReadReq MSHR hits
system.cpu0.dcache.WriteReq_mshr_hits::cpu0.data         3399                       # number of WriteReq MSHR hits
system.cpu0.dcache.WriteReq_mshr_hits::total         3399                       # number of WriteReq MSHR hits
system.cpu0.dcache.LoadLockedReq_mshr_hits::cpu0.data            6                       # number of LoadLockedReq MSHR hits
system.cpu0.dcache.LoadLockedReq_mshr_hits::total            6                       # number of LoadLockedReq MSHR hits
system.cpu0.dcache.demand_mshr_hits::cpu0.data         6100                       # number of demand (read+write) MSHR hits
system.cpu0.dcache.demand_mshr_hits::total         6100                       # number of demand (read+write) MSHR hits
system.cpu0.dcache.overall_mshr_hits::cpu0.data         6100                       # number of overall MSHR hits
system.cpu0.dcache.overall_mshr_hits::total         6100                       # number of overall MSHR hits
system.cpu0.dcache.ReadReq_mshr_misses::cpu0.data         2777                       # number of ReadReq MSHR misses
system.cpu0.dcache.ReadReq_mshr_misses::total         2777                       # number of ReadReq MSHR misses
system.cpu0.dcache.WriteReq_mshr_misses::cpu0.data         3496                       # number of WriteReq MSHR misses
system.cpu0.dcache.WriteReq_mshr_misses::total         3496                       # number of WriteReq MSHR misses
system.cpu0.dcache.LoadLockedReq_mshr_misses::cpu0.data            2                       # number of LoadLockedReq MSHR misses
system.cpu0.dcache.LoadLockedReq_mshr_misses::total            2                       # number of LoadLockedReq MSHR misses
system.cpu0.dcache.StoreCondReq_mshr_misses::cpu0.data           96                       # number of StoreCondReq MSHR misses
system.cpu0.dcache.StoreCondReq_mshr_misses::total           96                       # number of StoreCondReq MSHR misses
system.cpu0.dcache.demand_mshr_misses::cpu0.data         6273                       # number of demand (read+write) MSHR misses
system.cpu0.dcache.demand_mshr_misses::total         6273                       # number of demand (read+write) MSHR misses
system.cpu0.dcache.overall_mshr_misses::cpu0.data         6273                       # number of overall MSHR misses
system.cpu0.dcache.overall_mshr_misses::total         6273                       # number of overall MSHR misses
system.cpu0.dcache.ReadReq_mshr_miss_latency::cpu0.data     60597000                       # number of ReadReq MSHR miss cycles
system.cpu0.dcache.ReadReq_mshr_miss_latency::total     60597000                       # number of ReadReq MSHR miss cycles
system.cpu0.dcache.WriteReq_mshr_miss_latency::cpu0.data    126362995                       # number of WriteReq MSHR miss cycles
system.cpu0.dcache.WriteReq_mshr_miss_latency::total    126362995                       # number of WriteReq MSHR miss cycles
system.cpu0.dcache.LoadLockedReq_mshr_miss_latency::cpu0.data        18000                       # number of LoadLockedReq MSHR miss cycles
system.cpu0.dcache.LoadLockedReq_mshr_miss_latency::total        18000                       # number of LoadLockedReq MSHR miss cycles
system.cpu0.dcache.StoreCondReq_mshr_miss_latency::cpu0.data       849000                       # number of StoreCondReq MSHR miss cycles
system.cpu0.dcache.StoreCondReq_mshr_miss_latency::total       849000                       # number of StoreCondReq MSHR miss cycles
system.cpu0.dcache.StoreCondFailReq_mshr_miss_latency::cpu0.data        17000                       # number of StoreCondFailReq MSHR miss cycles
system.cpu0.dcache.StoreCondFailReq_mshr_miss_latency::total        17000                       # number of StoreCondFailReq MSHR miss cycles
system.cpu0.dcache.demand_mshr_miss_latency::cpu0.data    186959995                       # number of demand (read+write) MSHR miss cycles
system.cpu0.dcache.demand_mshr_miss_latency::total    186959995                       # number of demand (read+write) MSHR miss cycles
system.cpu0.dcache.overall_mshr_miss_latency::cpu0.data    186959995                       # number of overall MSHR miss cycles
system.cpu0.dcache.overall_mshr_miss_latency::total    186959995                       # number of overall MSHR miss cycles
system.cpu0.dcache.ReadReq_mshr_miss_rate::cpu0.data     0.000109                       # mshr miss rate for ReadReq accesses
system.cpu0.dcache.ReadReq_mshr_miss_rate::total     0.000109                       # mshr miss rate for ReadReq accesses
system.cpu0.dcache.WriteReq_mshr_miss_rate::cpu0.data     0.000187                       # mshr miss rate for WriteReq accesses
system.cpu0.dcache.WriteReq_mshr_miss_rate::total     0.000187                       # mshr miss rate for WriteReq accesses
system.cpu0.dcache.LoadLockedReq_mshr_miss_rate::cpu0.data     0.001441                       # mshr miss rate for LoadLockedReq accesses
system.cpu0.dcache.LoadLockedReq_mshr_miss_rate::total     0.001441                       # mshr miss rate for LoadLockedReq accesses
system.cpu0.dcache.StoreCondReq_mshr_miss_rate::cpu0.data     0.069767                       # mshr miss rate for StoreCondReq accesses
system.cpu0.dcache.StoreCondReq_mshr_miss_rate::total     0.069767                       # mshr miss rate for StoreCondReq accesses
system.cpu0.dcache.demand_mshr_miss_rate::cpu0.data     0.000142                       # mshr miss rate for demand accesses
system.cpu0.dcache.demand_mshr_miss_rate::total     0.000142                       # mshr miss rate for demand accesses
system.cpu0.dcache.overall_mshr_miss_rate::cpu0.data     0.000142                       # mshr miss rate for overall accesses
system.cpu0.dcache.overall_mshr_miss_rate::total     0.000142                       # mshr miss rate for overall accesses
system.cpu0.dcache.ReadReq_avg_mshr_miss_latency::cpu0.data 21821.029888                       # average ReadReq mshr miss latency
system.cpu0.dcache.ReadReq_avg_mshr_miss_latency::total 21821.029888                       # average ReadReq mshr miss latency
system.cpu0.dcache.WriteReq_avg_mshr_miss_latency::cpu0.data 36145.021453                       # average WriteReq mshr miss latency
system.cpu0.dcache.WriteReq_avg_mshr_miss_latency::total 36145.021453                       # average WriteReq mshr miss latency
system.cpu0.dcache.LoadLockedReq_avg_mshr_miss_latency::cpu0.data         9000                       # average LoadLockedReq mshr miss latency
system.cpu0.dcache.LoadLockedReq_avg_mshr_miss_latency::total         9000                       # average LoadLockedReq mshr miss latency
system.cpu0.dcache.StoreCondReq_avg_mshr_miss_latency::cpu0.data  8843.750000                       # average StoreCondReq mshr miss latency
system.cpu0.dcache.StoreCondReq_avg_mshr_miss_latency::total  8843.750000                       # average StoreCondReq mshr miss latency
system.cpu0.dcache.StoreCondFailReq_avg_mshr_miss_latency::cpu0.data          inf                       # average StoreCondFailReq mshr miss latency
system.cpu0.dcache.StoreCondFailReq_avg_mshr_miss_latency::total          inf                       # average StoreCondFailReq mshr miss latency
system.cpu0.dcache.demand_avg_mshr_miss_latency::cpu0.data 29803.920772                       # average overall mshr miss latency
system.cpu0.dcache.demand_avg_mshr_miss_latency::total 29803.920772                       # average overall mshr miss latency
system.cpu0.dcache.overall_avg_mshr_miss_latency::cpu0.data 29803.920772                       # average overall mshr miss latency
system.cpu0.dcache.overall_avg_mshr_miss_latency::total 29803.920772                       # average overall mshr miss latency
system.cpu0.icache.tags.pwrStateResidencyTicks::UNDEFINED 198296287000                       # Cumulative time (in ticks) in various power states
system.cpu0.icache.tags.replacements           142241                       # number of replacements
system.cpu0.icache.tags.tagsinuse          507.021942                       # Cycle average of tags in use
system.cpu0.icache.tags.total_refs           36624830                       # Total number of references to valid blocks.
system.cpu0.icache.tags.sampled_refs           142753                       # Sample count of references to valid blocks.
system.cpu0.icache.tags.avg_refs           256.560843                       # Average number of references to valid blocks.
system.cpu0.icache.tags.warmup_cycle      30264158500                       # Cycle when the warmup percentage was hit.
system.cpu0.icache.tags.occ_blocks::cpu0.inst   507.021942                       # Average occupied blocks per requestor
system.cpu0.icache.tags.occ_percent::cpu0.inst     0.990277                       # Average percentage of cache occupancy
system.cpu0.icache.tags.occ_percent::total     0.990277                       # Average percentage of cache occupancy
system.cpu0.icache.tags.occ_task_id_blocks::1024          512                       # Occupied blocks per task id
system.cpu0.icache.tags.age_task_id_blocks_1024::0           92                       # Occupied blocks per task id
system.cpu0.icache.tags.age_task_id_blocks_1024::1          200                       # Occupied blocks per task id
system.cpu0.icache.tags.age_task_id_blocks_1024::2           60                       # Occupied blocks per task id
system.cpu0.icache.tags.age_task_id_blocks_1024::3           46                       # Occupied blocks per task id
system.cpu0.icache.tags.age_task_id_blocks_1024::4          114                       # Occupied blocks per task id
system.cpu0.icache.tags.occ_task_id_percent::1024            1                       # Percentage of cache occupancy per task id
system.cpu0.icache.tags.tag_accesses         73680855                       # Number of tag accesses
system.cpu0.icache.tags.data_accesses        73680855                       # Number of data accesses
system.cpu0.icache.pwrStateResidencyTicks::UNDEFINED 198296287000                       # Cumulative time (in ticks) in various power states
system.cpu0.icache.ReadReq_hits::cpu0.inst     36624830                       # number of ReadReq hits
system.cpu0.icache.ReadReq_hits::total       36624830                       # number of ReadReq hits
system.cpu0.icache.demand_hits::cpu0.inst     36624830                       # number of demand (read+write) hits
system.cpu0.icache.demand_hits::total        36624830                       # number of demand (read+write) hits
[...]
system.l2.demand_mshr_miss_latency::cpu2.inst      7620000                       # number of demand (read+write) MSHR miss cycles
system.l2.demand_mshr_miss_latency::cpu2.data     57338000                       # number of demand (read+write) MSHR miss cycles
system.l2.demand_mshr_miss_latency::total    320790500                       # number of demand (read+write) MSHR miss cycles
system.l2.overall_mshr_miss_latency::cpu0.inst     79384500                       # number of overall MSHR miss cycles
system.l2.overall_mshr_miss_latency::cpu0.data    107930500                       # number of overall MSHR miss cycles
system.l2.overall_mshr_miss_latency::cpu1.inst      3340500                       # number of overall MSHR miss cycles
system.l2.overall_mshr_miss_latency::cpu1.data     65177000                       # number of overall MSHR miss cycles
system.l2.overall_mshr_miss_latency::cpu2.inst      7620000                       # number of overall MSHR miss cycles
system.l2.overall_mshr_miss_latency::cpu2.data     57338000                       # number of overall MSHR miss cycles
system.l2.overall_mshr_miss_latency::total    320790500                       # number of overall MSHR miss cycles
system.l2.CleanEvict_mshr_miss_rate::writebacks          inf                       # mshr miss rate for CleanEvict accesses
system.l2.CleanEvict_mshr_miss_rate::total          inf                       # mshr miss rate for CleanEvict accesses
system.l2.ReadExReq_mshr_miss_rate::cpu0.data     0.491228                       # mshr miss rate for ReadExReq accesses
system.l2.ReadExReq_mshr_miss_rate::cpu1.data     0.946852                       # mshr miss rate for ReadExReq accesses
system.l2.ReadExReq_mshr_miss_rate::cpu2.data     0.954545                       # mshr miss rate for ReadExReq accesses
system.l2.ReadExReq_mshr_miss_rate::total     0.679686                       # mshr miss rate for ReadExReq accesses
system.l2.ReadCleanReq_mshr_miss_rate::cpu0.inst     0.010851                       # mshr miss rate for ReadCleanReq accesses
system.l2.ReadCleanReq_mshr_miss_rate::cpu1.inst     0.002111                       # mshr miss rate for ReadCleanReq accesses
system.l2.ReadCleanReq_mshr_miss_rate::cpu2.inst     0.005513                       # mshr miss rate for ReadCleanReq accesses
system.l2.ReadCleanReq_mshr_miss_rate::total     0.008790                       # mshr miss rate for ReadCleanReq accesses
system.l2.ReadSharedReq_mshr_miss_rate::cpu0.data     0.191987                       # mshr miss rate for ReadSharedReq accesses
system.l2.ReadSharedReq_mshr_miss_rate::cpu1.data     0.136574                       # mshr miss rate for ReadSharedReq accesses
system.l2.ReadSharedReq_mshr_miss_rate::cpu2.data     0.117942                       # mshr miss rate for ReadSharedReq accesses
system.l2.ReadSharedReq_mshr_miss_rate::total     0.166428                       # mshr miss rate for ReadSharedReq accesses
system.l2.demand_mshr_miss_rate::cpu0.inst     0.010851                       # mshr miss rate for demand accesses
system.l2.demand_mshr_miss_rate::cpu0.data     0.361764                       # mshr miss rate for demand accesses
system.l2.demand_mshr_miss_rate::cpu1.inst     0.002111                       # mshr miss rate for demand accesses
system.l2.demand_mshr_miss_rate::cpu1.data     0.611404                       # mshr miss rate for demand accesses
system.l2.demand_mshr_miss_rate::cpu2.inst     0.005513                       # mshr miss rate for demand accesses
system.l2.demand_mshr_miss_rate::cpu2.data     0.598933                       # mshr miss rate for demand accesses
system.l2.demand_mshr_miss_rate::total       0.029806                       # mshr miss rate for demand accesses
system.l2.overall_mshr_miss_rate::cpu0.inst     0.010851                       # mshr miss rate for overall accesses
system.l2.overall_mshr_miss_rate::cpu0.data     0.361764                       # mshr miss rate for overall accesses
system.l2.overall_mshr_miss_rate::cpu1.inst     0.002111                       # mshr miss rate for overall accesses
system.l2.overall_mshr_miss_rate::cpu1.data     0.611404                       # mshr miss rate for overall accesses
system.l2.overall_mshr_miss_rate::cpu2.inst     0.005513                       # mshr miss rate for overall accesses
system.l2.overall_mshr_miss_rate::cpu2.data     0.598933                       # mshr miss rate for overall accesses
system.l2.overall_mshr_miss_rate::total      0.029806                       # mshr miss rate for overall accesses
system.l2.ReadExReq_avg_mshr_miss_latency::cpu0.data 51077.278325                       # average ReadExReq mshr miss latency
system.l2.ReadExReq_avg_mshr_miss_latency::cpu1.data 51028.065630                       # average ReadExReq mshr miss latency
system.l2.ReadExReq_avg_mshr_miss_latency::cpu2.data 51020.408163                       # average ReadExReq mshr miss latency
system.l2.ReadExReq_avg_mshr_miss_latency::total 51046.969299                       # average ReadExReq mshr miss latency
system.l2.ReadCleanReq_avg_mshr_miss_latency::cpu0.inst 51248.870239                       # average ReadCleanReq mshr miss latency
system.l2.ReadCleanReq_avg_mshr_miss_latency::cpu1.inst 51392.307692                       # average ReadCleanReq mshr miss latency
system.l2.ReadCleanReq_avg_mshr_miss_latency::cpu2.inst 51140.939597                       # average ReadCleanReq mshr miss latency
system.l2.ReadCleanReq_avg_mshr_miss_latency::total 51245.036869                       # average ReadCleanReq mshr miss latency
system.l2.ReadSharedReq_avg_mshr_miss_latency::cpu0.data 51613.636364                       # average ReadSharedReq mshr miss latency
system.l2.ReadSharedReq_avg_mshr_miss_latency::cpu1.data 51580.508475                       # average ReadSharedReq mshr miss latency
system.l2.ReadSharedReq_avg_mshr_miss_latency::cpu2.data 51468.085106                       # average ReadSharedReq mshr miss latency
system.l2.ReadSharedReq_avg_mshr_miss_latency::total 51588.362069                       # average ReadSharedReq mshr miss latency
system.l2.demand_avg_mshr_miss_latency::cpu0.inst 51248.870239                       # average overall mshr miss latency
system.l2.demand_avg_mshr_miss_latency::cpu0.data 51200.426945                       # average overall mshr miss latency
system.l2.demand_avg_mshr_miss_latency::cpu1.inst 51392.307692                       # average overall mshr miss latency
system.l2.demand_avg_mshr_miss_latency::cpu1.data 51079.153605                       # average overall mshr miss latency
system.l2.demand_avg_mshr_miss_latency::cpu2.inst 51140.939597                       # average overall mshr miss latency
system.l2.demand_avg_mshr_miss_latency::cpu2.data 51057.880677                       # average overall mshr miss latency
system.l2.demand_avg_mshr_miss_latency::total 51162.759171                       # average overall mshr miss latency
system.l2.overall_avg_mshr_miss_latency::cpu0.inst 51248.870239                       # average overall mshr miss latency
system.l2.overall_avg_mshr_miss_latency::cpu0.data 51200.426945                       # average overall mshr miss latency
system.l2.overall_avg_mshr_miss_latency::cpu1.inst 51392.307692                       # average overall mshr miss latency
system.l2.overall_avg_mshr_miss_latency::cpu1.data 51079.153605                       # average overall mshr miss latency
system.l2.overall_avg_mshr_miss_latency::cpu2.inst 51140.939597                       # average overall mshr miss latency
system.l2.overall_avg_mshr_miss_latency::cpu2.data 51057.880677                       # average overall mshr miss latency
system.l2.overall_avg_mshr_miss_latency::total 51162.759171                       # average overall mshr miss latency
system.membus.snoop_filter.tot_requests          7999                       # Total number of requests made to the snoop filter.
system.membus.snoop_filter.hit_single_requests         1419                       # Number of requests hitting in the snoop filter with a single holder of the requested data.
system.membus.snoop_filter.hit_multi_requests            0                       # Number of requests hitting in the snoop filter with multiple (>1) holders of the requested data.
system.membus.snoop_filter.tot_snoops               0                       # Total number of snoops made to the snoop filter.
system.membus.snoop_filter.hit_single_snoops            0                       # Number of snoops hitting in the snoop filter with a single holder of the requested data.
system.membus.snoop_filter.hit_multi_snoops            0                       # Number of snoops hitting in the snoop filter with multiple (>1) holders of the requested data.
system.membus.pwrStateResidencyTicks::UNDEFINED 198296287000                       # Cumulative time (in ticks) in various power states
system.membus.trans_dist::ReadResp               2459                       # Transaction distribution
system.membus.trans_dist::WritebackDirty          766                       # Transaction distribution
system.membus.trans_dist::CleanEvict               20                       # Transaction distribution
system.membus.trans_dist::UpgradeReq              337                       # Transaction distribution
system.membus.trans_dist::SCUpgradeReq            279                       # Transaction distribution
system.membus.trans_dist::ReadExReq              3824                       # Transaction distribution
system.membus.trans_dist::ReadExResp             3811                       # Transaction distribution
system.membus.trans_dist::ReadSharedReq          2459                       # Transaction distribution
system.membus.pkt_count_system.l2.mem_side::system.physmem.port        13955                       # Packet count per connected master and slave (bytes)
system.membus.pkt_count::total                  13955                       # Packet count per connected master and slave (bytes)
system.membus.pkt_size_system.l2.mem_side::system.physmem.port       450304                       # Cumulative packet size per connected master and slave (bytes)
system.membus.pkt_size::total                  450304                       # Cumulative packet size per connected master and slave (bytes)
system.membus.snoops                              629                       # Total snoops (count)
system.membus.snoopTraffic                          0                       # Total snoop traffic (bytes)
system.membus.snoop_fanout::samples              7209                       # Request fanout histogram
system.membus.snoop_fanout::mean                    0                       # Request fanout histogram
system.membus.snoop_fanout::stdev                   0                       # Request fanout histogram
system.membus.snoop_fanout::underflows              0      0.00%      0.00% # Request fanout histogram
system.membus.snoop_fanout::0                    7209    100.00%    100.00% # Request fanout histogram
system.membus.snoop_fanout::1                       0      0.00%    100.00% # Request fanout histogram
system.membus.snoop_fanout::overflows               0      0.00%    100.00% # Request fanout histogram
system.membus.snoop_fanout::min_value               0                       # Request fanout histogram
system.membus.snoop_fanout::max_value               0                       # Request fanout histogram
system.membus.snoop_fanout::total                7209                       # Request fanout histogram
system.membus.reqLayer0.occupancy            14026552                       # Layer occupancy (ticks)
system.membus.reqLayer0.utilization               0.0                       # Layer utilization (%)
system.membus.respLayer1.occupancy           31350000                       # Layer occupancy (ticks)
system.membus.respLayer1.utilization              0.0                       # Layer utilization (%)
system.tol2bus.snoop_filter.tot_requests       419631                       # Total number of requests made to the snoop filter.
system.tol2bus.snoop_filter.hit_single_requests       170365                       # Number of requests hitting in the snoop filter with a single holder of the requested data.
system.tol2bus.snoop_filter.hit_multi_requests       104366                       # Number of requests hitting in the snoop filter with multiple (>1) holders of the requested data.
system.tol2bus.snoop_filter.tot_snoops           1712                       # Total number of snoops made to the snoop filter.
system.tol2bus.snoop_filter.hit_single_snoops         1712                       # Number of snoops hitting in the snoop filter with a single holder of the requested data.
system.tol2bus.snoop_filter.hit_multi_snoops            0                       # Number of snoops hitting in the snoop filter with multiple (>1) holders of the requested data.
system.tol2bus.pwrStateResidencyTicks::UNDEFINED 198296287000                       # Cumulative time (in ticks) in various power states
system.tol2bus.trans_dist::ReadResp            205676                       # Transaction distribution
system.tol2bus.trans_dist::WritebackDirty         6352                       # Transaction distribution
system.tol2bus.trans_dist::WritebackClean       199097                       # Transaction distribution
system.tol2bus.trans_dist::CleanEvict            4540                       # Transaction distribution
system.tol2bus.trans_dist::UpgradeReq             361                       # Transaction distribution
system.tol2bus.trans_dist::SCUpgradeReq           323                       # Transaction distribution
system.tol2bus.trans_dist::UpgradeResp            684                       # Transaction distribution
system.tol2bus.trans_dist::SCUpgradeFailReq            2                       # Transaction distribution
system.tol2bus.trans_dist::UpgradeFailResp            2                       # Transaction distribution
system.tol2bus.trans_dist::ReadExReq             5766                       # Transaction distribution
system.tol2bus.trans_dist::ReadExResp            5766                       # Transaction distribution
system.tol2bus.trans_dist::ReadCleanReq        200568                       # Transaction distribution
system.tol2bus.trans_dist::ReadSharedReq         5108                       # Transaction distribution
system.tol2bus.pkt_count_system.cpu0.icache.mem_side::system.l2.cpu_side       427747                       # Packet count per connected master and slave (bytes)
system.tol2bus.pkt_count_system.cpu0.dcache.mem_side::system.l2.cpu_side        17600                       # Packet count per connected master and slave (bytes)
system.tol2bus.pkt_count_system.cpu1.icache.mem_side::system.l2.cpu_side        91879                       # Packet count per connected master and slave (bytes)
system.tol2bus.pkt_count_system.cpu1.dcache.mem_side::system.l2.cpu_side         6514                       # Packet count per connected master and slave (bytes)
system.tol2bus.pkt_count_system.cpu2.icache.mem_side::system.l2.cpu_side        80607                       # Packet count per connected master and slave (bytes)
system.tol2bus.pkt_count_system.cpu2.dcache.mem_side::system.l2.cpu_side         5709                       # Packet count per connected master and slave (bytes)
system.tol2bus.pkt_count::total                630056                       # Packet count per connected master and slave (bytes)
system.tol2bus.pkt_size_system.cpu0.icache.mem_side::system.l2.cpu_side     18239616                       # Cumulative packet size per connected master and slave (bytes)
system.tol2bus.pkt_size_system.cpu0.dcache.mem_side::system.l2.cpu_side       605376                       # Cumulative packet size per connected master and slave (bytes)
system.tol2bus.pkt_size_system.cpu1.icache.mem_side::system.l2.cpu_side      3909952                       # Cumulative packet size per connected master and slave (bytes)
system.tol2bus.pkt_size_system.cpu1.dcache.mem_side::system.l2.cpu_side       201088                       # Cumulative packet size per connected master and slave (bytes)
system.tol2bus.pkt_size_system.cpu2.icache.mem_side::system.l2.cpu_side      3428992                       # Cumulative packet size per connected master and slave (bytes)
system.tol2bus.pkt_size_system.cpu2.dcache.mem_side::system.l2.cpu_side       177536                       # Cumulative packet size per connected master and slave (bytes)
system.tol2bus.pkt_size::total               26562560                       # Cumulative packet size per connected master and slave (bytes)
system.tol2bus.snoops                            4189                       # Total snoops (count)
system.tol2bus.snoopTraffic                    118592                       # Total snoop traffic (bytes)
system.tol2bus.snoop_fanout::samples           214614                       # Request fanout histogram
system.tol2bus.snoop_fanout::mean            0.647227                       # Request fanout histogram
system.tol2bus.snoop_fanout::stdev           1.164783                       # Request fanout histogram
system.tol2bus.snoop_fanout::underflows             0      0.00%      0.00% # Request fanout histogram
system.tol2bus.snoop_fanout::0                 145675     67.88%     67.88% # Request fanout histogram
system.tol2bus.snoop_fanout::1                  29719     13.85%     81.73% # Request fanout histogram
system.tol2bus.snoop_fanout::2                  24064     11.21%     92.94% # Request fanout histogram
system.tol2bus.snoop_fanout::3                   4352      2.03%     94.97% # Request fanout histogram
system.tol2bus.snoop_fanout::4                   6019      2.80%     97.77% # Request fanout histogram
system.tol2bus.snoop_fanout::5                   4785      2.23%    100.00% # Request fanout histogram
system.tol2bus.snoop_fanout::6                      0      0.00%    100.00% # Request fanout histogram
system.tol2bus.snoop_fanout::overflows              0      0.00%    100.00% # Request fanout histogram
system.tol2bus.snoop_fanout::min_value              0                       # Request fanout histogram
system.tol2bus.snoop_fanout::max_value              5                       # Request fanout histogram
system.tol2bus.snoop_fanout::total             214614                       # Request fanout histogram
system.tol2bus.reqLayer0.occupancy          414503989                       # Layer occupancy (ticks)
system.tol2bus.reqLayer0.utilization              0.2                       # Layer utilization (%)
system.tol2bus.respLayer0.occupancy         214161426                       # Layer occupancy (ticks)
system.tol2bus.respLayer0.utilization             0.1                       # Layer utilization (%)
system.tol2bus.respLayer1.occupancy           9342482                       # Layer occupancy (ticks)
system.tol2bus.respLayer1.utilization             0.0                       # Layer utilization (%)
system.tol2bus.respLayer4.occupancy          46200951                       # Layer occupancy (ticks)
system.tol2bus.respLayer4.utilization             0.0                       # Layer utilization (%)
system.tol2bus.respLayer5.occupancy           3917984                       # Layer occupancy (ticks)
system.tol2bus.respLayer5.utilization             0.0                       # Layer utilization (%)
system.tol2bus.respLayer8.occupancy          40564450                       # Layer occupancy (ticks)
system.tol2bus.respLayer8.utilization             0.0                       # Layer utilization (%)
system.tol2bus.respLayer9.occupancy           3420481                       # Layer occupancy (ticks)
system.tol2bus.respLayer9.utilization             0.0                       # Layer utilization (%)

---------- End Simulation Statistics   ----------
