
---------- Begin Simulation Statistics ----------
sim_seconds                                  0.198043                       # Number of seconds simulated
sim_ticks                                198043356000                       # Number of ticks simulated
final_tick                               198043356000                       # Number of ticks from beginning of simulation (restored from checkpoints and never reset)
sim_freq                                 1000000000000                       # Frequency of simulated ticks
host_inst_rate                                 237439                       # Simulator instruction rate (inst/s)
host_op_rate                                   266972                       # Simulator op (including micro ops) rate (op/s)
host_tick_rate                               80146670                       # Simulator tick rate (ticks/s)
host_mem_usage                                 679560                       # Number of bytes of host memory used
host_seconds                                  2471.01                       # Real time elapsed on the host
sim_insts                                   586713724                       # Number of instructions simulated
sim_ops                                     659690792                       # Number of ops (including micro ops) simulated
system.voltage_domain.voltage                       1                       # Voltage in Volts
system.clk_domain.clock                          1000                       # Clock period in ticks
system.physmem.pwrStateResidencyTicks::UNDEFINED 198043356000                       # Cumulative time (in ticks) in various power states
system.physmem.bytes_read::cpu0.inst            97792                       # Number of bytes read from this memory
system.physmem.bytes_read::cpu0.data           134784                       # Number of bytes read from this memory
system.physmem.bytes_read::cpu1.inst             3072                       # Number of bytes read from this memory
system.physmem.bytes_read::cpu1.data            84480                       # Number of bytes read from this memory
system.physmem.bytes_read::cpu2.inst            10560                       # Number of bytes read from this memory
system.physmem.bytes_read::cpu2.data            74432                       # Number of bytes read from this memory
system.physmem.bytes_read::total               405120                       # Number of bytes read from this memory
system.physmem.bytes_inst_read::cpu0.inst        97792                       # Number of instructions bytes read from this memory
system.physmem.bytes_inst_read::cpu1.inst         3072                       # Number of instructions bytes read from this memory
system.physmem.bytes_inst_read::cpu2.inst        10560                       # Number of instructions bytes read from this memory
system.physmem.bytes_inst_read::total          111424                       # Number of instructions bytes read from this memory
system.physmem.bytes_written::writebacks        50176                       # Number of bytes written to this memory
system.physmem.bytes_written::total             50176                       # Number of bytes written to this memory
system.physmem.num_reads::cpu0.inst              1528                       # Number of read requests responded to by this memory
system.physmem.num_reads::cpu0.data              2106                       # Number of read requests responded to by this memory
system.physmem.num_reads::cpu1.inst                48                       # Number of read requests responded to by this memory
system.physmem.num_reads::cpu1.data              1320                       # Number of read requests responded to by this memory
system.physmem.num_reads::cpu2.inst               165                       # Number of read requests responded to by this memory
system.physmem.num_reads::cpu2.data              1163                       # Number of read requests responded to by this memory
system.physmem.num_reads::total                  6330                       # Number of read requests responded to by this memory
system.physmem.num_writes::writebacks             784                       # Number of write requests responded to by this memory
system.physmem.num_writes::total                  784                       # Number of write requests responded to by this memory
system.physmem.bw_read::cpu0.inst              493791                       # Total read bandwidth from this memory (bytes/s)
system.physmem.bw_read::cpu0.data              680578                       # Total read bandwidth from this memory (bytes/s)
system.physmem.bw_read::cpu1.inst               15512                       # Total read bandwidth from this memory (bytes/s)
system.physmem.bw_read::cpu1.data              426573                       # Total read bandwidth from this memory (bytes/s)
system.physmem.bw_read::cpu2.inst               53322                       # Total read bandwidth from this memory (bytes/s)
system.physmem.bw_read::cpu2.data              375837                       # Total read bandwidth from this memory (bytes/s)
system.physmem.bw_read::total                 2045613                       # Total read bandwidth from this memory (bytes/s)
system.physmem.bw_inst_read::cpu0.inst         493791                       # Instruction read bandwidth from this memory (bytes/s)
system.physmem.bw_inst_read::cpu1.inst          15512                       # Instruction read bandwidth from this memory (bytes/s)
system.physmem.bw_inst_read::cpu2.inst          53322                       # Instruction read bandwidth from this memory (bytes/s)
system.physmem.bw_inst_read::total             562624                       # Instruction read bandwidth from this memory (bytes/s)
system.physmem.bw_write::writebacks            253359                       # Write bandwidth from this memory (bytes/s)
system.physmem.bw_write::total                 253359                       # Write bandwidth from this memory (bytes/s)
system.physmem.bw_total::writebacks            253359                       # Total bandwidth to/from this memory (bytes/s)
system.physmem.bw_total::cpu0.inst             493791                       # Total bandwidth to/from this memory (bytes/s)
system.physmem.bw_total::cpu0.data             680578                       # Total bandwidth to/from this memory (bytes/s)
system.physmem.bw_total::cpu1.inst              15512                       # Total bandwidth to/from this memory (bytes/s)
system.physmem.bw_total::cpu1.data             426573                       # Total bandwidth to/from this memory (bytes/s)
system.physmem.bw_total::cpu2.inst              53322                       # Total bandwidth to/from this memory (bytes/s)
system.physmem.bw_total::cpu2.data             375837                       # Total bandwidth to/from this memory (bytes/s)
system.physmem.bw_total::total                2298971                       # Total bandwidth to/from this memory (bytes/s)
system.pwrStateResidencyTicks::UNDEFINED 198043356000                       # Cumulative time (in ticks) in various power states
system.cpu0.branchPred.lookups               42361091                       # Number of BP lookups
system.cpu0.branchPred.condPredicted         25050583                       # Number of conditional branches predicted
system.cpu0.branchPred.condIncorrect          1009082                       # Number of conditional branches incorrect
system.cpu0.branchPred.BTBLookups            23138298                       # Number of BTB lookups
system.cpu0.branchPred.BTBHits               20084994                       # Number of BTB hits
system.cpu0.branchPred.BTBCorrect                   0                       # Number of correct BTB predictions (this stat may not work properly.
system.cpu0.branchPred.BTBHitPct            86.804112                       # BTB Hit Percentage
system.cpu0.branchPred.usedRAS                5601176                       # Number of times the RAS was used to get a target.
system.cpu0.branchPred.RASInCorrect             92232                       # Number of incorrect RAS predictions.
system.cpu0.branchPred.indirectLookups        1269641                       # Number of indirect predictor lookups.
system.cpu0.branchPred.indirectHits           1262878                       # Number of indirect target hits.
system.cpu0.branchPred.indirectMisses            6763                       # Number of indirect misses.
system.cpu0.branchPredindirectMispredicted        13350                       # Number of mispredicted indirect branches.
system.cpu0.dstage2_mmu.stage2_tlb.walker.pwrStateResidencyTicks::UNDEFINED 198043356000                       # Cumulative time (in ticks) in various power states
system.cpu0.dstage2_mmu.stage2_tlb.walker.walks            0                       # Table walker walks requested
system.cpu0.dstage2_mmu.stage2_tlb.walker.walkRequestOrigin_Requested::Data            0                       # Table walker requests started/completed, data/inst
system.cpu0.dstage2_mmu.stage2_tlb.walker.walkRequestOrigin_Requested::Inst            0                       # Table walker requests started/completed, data/inst
system.cpu0.dstage2_mmu.stage2_tlb.walker.walkRequestOrigin_Requested::total            0                       # Table walker requests started/completed, data/inst
system.cpu0.dstage2_mmu.stage2_tlb.walker.walkRequestOrigin_Completed::Data            0                       # Table walker requests started/completed, data/inst
system.cpu0.dstage2_mmu.stage2_tlb.walker.walkRequestOrigin_Completed::Inst            0                       # Table walker requests started/completed, data/inst
system.cpu0.dstage2_mmu.stage2_tlb.walker.walkRequestOrigin_Completed::total            0                       # Table walker requests started/completed, data/inst
system.cpu0.dstage2_mmu.stage2_tlb.walker.walkRequestOrigin::total            0                       # Table walker requests started/completed, data/inst
system.cpu0.dstage2_mmu.stage2_tlb.inst_hits            0                       # ITB inst hits
system.cpu0.dstage2_mmu.stage2_tlb.inst_misses            0                       # ITB inst misses
system.cpu0.dstage2_mmu.stage2_tlb.read_hits            0                       # DTB read hits
system.cpu0.dstage2_mmu.stage2_tlb.read_misses            0                       # DTB read misses
system.cpu0.dstage2_mmu.stage2_tlb.write_hits            0                       # DTB write hits
system.cpu0.dstage2_mmu.stage2_tlb.write_misses            0                       # DTB write misses
system.cpu0.dstage2_mmu.stage2_tlb.flush_tlb            0                       # Number of times complete TLB was flushed
system.cpu0.dstage2_mmu.stage2_tlb.flush_tlb_mva            0                       # Number of times TLB was flushed by MVA
system.cpu0.dstage2_mmu.stage2_tlb.flush_tlb_mva_asid            0                       # Number of times TLB was flushed by MVA & ASID
system.cpu0.dstage2_mmu.stage2_tlb.flush_tlb_asid            0                       # Number of times TLB was flushed by ASID
system.cpu0.dstage2_mmu.stage2_tlb.flush_entries            0                       # Number of entries that have been flushed from TLB
system.cpu0.dstage2_mmu.stage2_tlb.align_faults            0                       # Number of TLB faults due to alignment restrictions
system.cpu0.dstage2_mmu.stage2_tlb.prefetch_faults            0                       # Number of TLB faults due to prefetch
system.cpu0.dstage2_mmu.stage2_tlb.domain_faults            0                       # Number of TLB faults due to domain restrictions
system.cpu0.dstage2_mmu.stage2_tlb.perms_faults            0                       # Number of TLB faults due to permissions restrictions
system.cpu0.dstage2_mmu.stage2_tlb.read_accesses            0                       # DTB read accesses
system.cpu0.dstage2_mmu.stage2_tlb.write_accesses            0                       # DTB write accesses
system.cpu0.dstage2_mmu.stage2_tlb.inst_accesses            0                       # ITB inst accesses
system.cpu0.dstage2_mmu.stage2_tlb.hits             0                       # DTB hits
system.cpu0.dstage2_mmu.stage2_tlb.misses            0                       # DTB misses
system.cpu0.dstage2_mmu.stage2_tlb.accesses            0                       # DTB accesses
system.cpu0.dtb.walker.pwrStateResidencyTicks::UNDEFINED 198043356000                       # Cumulative time (in ticks) in various power states
system.cpu0.dtb.walker.walks                        0                       # Table walker walks requested
system.cpu0.dtb.walker.walkRequestOrigin_Requested::Data            0                       # Table walker requests started/completed, data/inst
system.cpu0.dtb.walker.walkRequestOrigin_Requested::Inst            0                       # Table walker requests started/completed, data/inst
system.cpu0.dtb.walker.walkRequestOrigin_Requested::total            0                       # Table walker requests started/completed, data/inst
system.cpu0.dtb.walker.walkRequestOrigin_Completed::Data            0                       # Table walker requests started/completed, data/inst
system.cpu0.dtb.walker.walkRequestOrigin_Completed::Inst            0                       # Table walker requests started/completed, data/inst
system.cpu0.dtb.walker.walkRequestOrigin_Completed::total            0                       # Table walker requests started/completed, data/inst
system.cpu0.dtb.walker.walkRequestOrigin::total            0                       # Table walker requests started/completed, data/inst
system.cpu0.dtb.inst_hits                           0                       # ITB inst hits
system.cpu0.dtb.inst_misses                         0                       # ITB inst misses
system.cpu0.dtb.read_hits                           0                       # DTB read hits
system.cpu0.dtb.read_misses                         0                       # DTB read misses
system.cpu0.dtb.write_hits                          0                       # DTB write hits
system.cpu0.dtb.write_misses                        0                       # DTB write misses
system.cpu0.dtb.flush_tlb                           0                       # Number of times complete TLB was flushed
system.cpu0.dtb.flush_tlb_mva                       0                       # Number of times TLB was flushed by MVA
system.cpu0.dtb.flush_tlb_mva_asid                  0                       # Number of times TLB was flushed by MVA & ASID
system.cpu0.dtb.flush_tlb_asid                      0                       # Number of times TLB was flushed by ASID
system.cpu0.dtb.flush_entries                       0                       # Number of entries that have been flushed from TLB
system.cpu0.dtb.align_faults                        0                       # Number of TLB faults due to alignment restrictions
system.cpu0.dtb.prefetch_faults                     0                       # Number of TLB faults due to prefetch
system.cpu0.dtb.domain_faults                       0                       # Number of TLB faults due to domain restrictions
system.cpu0.dtb.perms_faults                        0                       # Number of TLB faults due to permissions restrictions
system.cpu0.dtb.read_accesses                       0                       # DTB read accesses
system.cpu0.dtb.write_accesses                      0                       # DTB write accesses
system.cpu0.dtb.inst_accesses                       0                       # ITB inst accesses
system.cpu0.dtb.hits                                0                       # DTB hits
system.cpu0.dtb.misses                              0                       # DTB misses
system.cpu0.dtb.accesses                            0                       # DTB accesses
system.cpu0.istage2_mmu.stage2_tlb.walker.pwrStateResidencyTicks::UNDEFINED 198043356000                       # Cumulative time (in ticks) in various power states
system.cpu0.istage2_mmu.stage2_tlb.walker.walks            0                       # Table walker walks requested
system.cpu0.istage2_mmu.stage2_tlb.walker.walkRequestOrigin_Requested::Data            0                       # Table walker requests started/completed, data/inst
system.cpu0.istage2_mmu.stage2_tlb.walker.walkRequestOrigin_Requested::Inst            0                       # Table walker requests started/completed, data/inst
system.cpu0.istage2_mmu.stage2_tlb.walker.walkRequestOrigin_Requested::total            0                       # Table walker requests started/completed, data/inst
system.cpu0.istage2_mmu.stage2_tlb.walker.walkRequestOrigin_Completed::Data            0                       # Table walker requests started/completed, data/inst
system.cpu0.istage2_mmu.stage2_tlb.walker.walkRequestOrigin_Completed::Inst            0                       # Table walker requests started/completed, data/inst
system.cpu0.istage2_mmu.stage2_tlb.walker.walkRequestOrigin_Completed::total            0                       # Table walker requests started/completed, data/inst
system.cpu0.istage2_mmu.stage2_tlb.walker.walkRequestOrigin::total            0                       # Table walker requests started/completed, data/inst
system.cpu0.istage2_mmu.stage2_tlb.inst_hits            0                       # ITB inst hits
system.cpu0.istage2_mmu.stage2_tlb.inst_misses            0                       # ITB inst misses
system.cpu0.istage2_mmu.stage2_tlb.read_hits            0                       # DTB read hits
system.cpu0.istage2_mmu.stage2_tlb.read_misses            0                       # DTB read misses
system.cpu0.istage2_mmu.stage2_tlb.write_hits            0                       # DTB write hits
system.cpu0.istage2_mmu.stage2_tlb.write_misses            0                       # DTB write misses
system.cpu0.istage2_mmu.stage2_tlb.flush_tlb            0                       # Number of times complete TLB was flushed
system.cpu0.istage2_mmu.stage2_tlb.flush_tlb_mva            0                       # Number of times TLB was flushed by MVA
system.cpu0.istage2_mmu.stage2_tlb.flush_tlb_mva_asid            0                       # Number of times TLB was flushed by MVA & ASID
system.cpu0.istage2_mmu.stage2_tlb.flush_tlb_asid            0                       # Number of times TLB was flushed by ASID
system.cpu0.istage2_mmu.stage2_tlb.flush_entries            0                       # Number of entries that have been flushed from TLB
system.cpu0.istage2_mmu.stage2_tlb.align_faults            0                       # Number of TLB faults due to alignment restrictions
system.cpu0.istage2_mmu.stage2_tlb.prefetch_faults            0                       # Number of TLB faults due to prefetch
system.cpu0.istage2_mmu.stage2_tlb.domain_faults            0                       # Number of TLB faults due to domain restrictions
system.cpu0.istage2_mmu.stage2_tlb.perms_faults            0                       # Number of TLB faults due to permissions restrictions
system.cpu0.istage2_mmu.stage2_tlb.read_accesses            0                       # DTB read accesses
system.cpu0.istage2_mmu.stage2_tlb.write_accesses            0                       # DTB write accesses
system.cpu0.istage2_mmu.stage2_tlb.inst_accesses            0                       # ITB inst accesses
system.cpu0.istage2_mmu.stage2_tlb.hits             0                       # DTB hits
system.cpu0.istage2_mmu.stage2_tlb.misses            0                       # DTB misses
system.cpu0.istage2_mmu.stage2_tlb.accesses            0                       # DTB accesses
system.cpu0.itb.walker.pwrStateResidencyTicks::UNDEFINED 198043356000                       # Cumulative time (in ticks) in various power states
system.cpu0.itb.walker.walks                        0                       # Table walker walks requested
system.cpu0.itb.walker.walkRequestOrigin_Requested::Data            0                       # Table walker requests started/completed, data/inst
system.cpu0.itb.walker.walkRequestOrigin_Requested::Inst            0                       # Table walker requests started/completed, data/inst
system.cpu0.itb.walker.walkRequestOrigin_Requested::total            0                       # Table walker requests started/completed, data/inst
system.cpu0.itb.walker.walkRequestOrigin_Completed::Data            0                       # Table walker requests started/completed, data/inst
system.cpu0.itb.walker.walkRequestOrigin_Completed::Inst            0                       # Table walker requests started/completed, data/inst
system.cpu0.itb.walker.walkRequestOrigin_Completed::total            0                       # Table walker requests started/completed, data/inst
system.cpu0.itb.walker.walkRequestOrigin::total            0                       # Table walker requests started/completed, data/inst
system.cpu0.itb.inst_hits                           0                       # ITB inst hits
system.cpu0.itb.inst_misses                         0                       # ITB inst misses
system.cpu0.itb.read_hits                           0                       # DTB read hits
system.cpu0.itb.read_misses                         0                       # DTB read misses
system.cpu0.itb.write_hits                          0                       # DTB write hits
system.cpu0.itb.write_misses                        0                       # DTB write misses
system.cpu0.itb.flush_tlb                           0                       # Number of times complete TLB was flushed
system.cpu0.itb.flush_tlb_mva                       0                       # Number of times TLB was flushed by MVA
system.cpu0.itb.flush_tlb_mva_asid                  0                       # Number of times TLB was flushed by MVA & ASID
system.cpu0.itb.flush_tlb_asid                      0                       # Number of times TLB was flushed by ASID
system.cpu0.itb.flush_entries                       0                       # Number of entries that have been flushed from TLB
system.cpu0.itb.align_faults                        0                       # Number of TLB faults due to alignment restrictions
system.cpu0.itb.prefetch_faults                     0                       # Number of TLB faults due to prefetch
system.cpu0.itb.domain_faults                       0                       # Number of TLB faults due to domain restrictions
system.cpu0.itb.perms_faults                        0                       # Number of TLB faults due to permissions restrictions
system.cpu0.itb.read_accesses                       0                       # DTB read accesses
system.cpu0.itb.write_accesses                      0                       # DTB write accesses
system.cpu0.itb.inst_accesses                       0                       # ITB inst accesses
system.cpu0.itb.hits                                0                       # DTB hits
system.cpu0.itb.misses                              0                       # DTB misses
system.cpu0.itb.accesses                            0                       # DTB accesses
system.cpu0.workload.num_syscalls               29517                       # Number of system calls
system.cpu0.pwrStateResidencyTicks::ON   198043356000                       # Cumulative time (in ticks) in various power states
system.cpu0.numCycles                       198043357                       # number of cpu cycles simulated
system.cpu0.numWorkItemsStarted                     0                       # number of work items this cpu started
system.cpu0.numWorkItemsCompleted                   0                       # number of work items this cpu completed
system.cpu0.fetch.icacheStallCycles          37441028                       # Number of cycles fetch is stalled on an Icache miss
system.cpu0.fetch.Insts                     242281989                       # Number of instructions fetch has processed
system.cpu0.fetch.Branches                   42361091                       # Number of branches that fetch encountered
system.cpu0.fetch.predictedBranches          26949048                       # Number of branches that fetch has predicted taken
system.cpu0.fetch.Cycles                    159543849                       # Number of cycles fetch has run and was not squashing or blocked
system.cpu0.fetch.SquashCycles                2026965                       # Number of cycles fetch has spent squashing
system.cpu0.fetch.MiscStallCycles                   4                       # Number of cycles fetch has spent waiting on interrupts, or bad addresses, or out of MSHRs
system.cpu0.fetch.PendingTrapStallCycles          230                       # Number of stall cycles due to pending traps
system.cpu0.fetch.CacheLines                 35293254                       # Number of cache lines fetched
system.cpu0.fetch.IcacheSquashes               172891                       # Number of outstanding Icache misses that were squashed
system.cpu0.fetch.rateDist::samples         197998593                       # Number of instructions fetched each cycle (Total)
system.cpu0.fetch.rateDist::mean             1.382834                       # Number of instructions fetched each cycle (Total)
system.cpu0.fetch.rateDist::stdev            0.856610                       # Number of instructions fetched each cycle (Total)
system.cpu0.fetch.rateDist::underflows              0      0.00%      0.00% # Number of instructions fetched each cycle (Total)
system.cpu0.fetch.rateDist::0                49252913     24.88%     24.88% # Number of instructions fetched each cycle (Total)
system.cpu0.fetch.rateDist::1                23692122     11.97%     36.84% # Number of instructions fetched each cycle (Total)
system.cpu0.fetch.rateDist::2               125053558     63.16%    100.00% # Number of instructions fetched each cycle (Total)
system.cpu0.fetch.rateDist::overflows               0      0.00%    100.00% # Number of instructions fetched each cycle (Total)
system.cpu0.fetch.rateDist::min_value               0                       # Number of instructions fetched each cycle (Total)
system.cpu0.fetch.rateDist::max_value               2                       # Number of instructions fetched each cycle (Total)
system.cpu0.fetch.rateDist::total           197998593                       # Number of instructions fetched each cycle (Total)
system.cpu0.fetch.branchRate                 0.213898                       # Number of branch fetches per cycle
system.cpu0.fetch.rate                       1.223379                       # Number of inst fetches per cycle
system.cpu0.decode.IdleCycles                31288899                       # Number of cycles decode is idle
system.cpu0.decode.BlockedCycles             27943686                       # Number of cycles decode is blocked
system.cpu0.decode.RunCycles                106816320                       # Number of cycles decode is running
system.cpu0.decode.UnblockCycles             31021544                       # Number of cycles decode is unblocking
system.cpu0.decode.SquashCycles                928144                       # Number of cycles decode is squashing
system.cpu0.decode.BranchResolved            12060386                       # Number of times decode resolved a branch
system.cpu0.decode.BranchMispred                86411                       # Number of times decode detected a branch misprediction
system.cpu0.decode.DecodedInsts             267917972                       # Number of instructions handled by decode
system.cpu0.decode.SquashedInsts               142838                       # Number of squashed instructions handled by decode
system.cpu0.rename.SquashCycles                928144                       # Number of cycles rename is squashing
system.cpu0.rename.IdleCycles                38199793                       # Number of cycles rename is idle
system.cpu0.rename.BlockCycles                3381709                       # Number of cycles rename is blocking
system.cpu0.rename.serializeStallCycles        638097                       # count of cycles rename stalled for serializing inst
system.cpu0.rename.RunCycles                130842757                       # Number of cycles rename is running
system.cpu0.rename.UnblockCycles             24008093                       # Number of cycles rename is unblocking
system.cpu0.rename.RenamedInsts             266476825                       # Number of instructions processed by rename
system.cpu0.rename.IQFullEvents              17837093                       # Number of times rename has blocked due to IQ full
system.cpu0.rename.LQFullEvents                 38171                       # Number of times rename has blocked due to LQ full
system.cpu0.rename.SQFullEvents                  1623                       # Number of times rename has blocked due to SQ full
system.cpu0.rename.RenamedOperands          338620149                       # Number of destination operands rename has renamed
system.cpu0.rename.RenameLookups           1236156239                       # Number of register rename lookups that rename has made
system.cpu0.rename.int_rename_lookups       344806286                       # Number of integer rename lookups
system.cpu0.rename.fp_rename_lookups               16                       # Number of floating rename lookups
system.cpu0.rename.CommittedMaps            291061126                       # Number of HB maps that are committed
system.cpu0.rename.UndoneMaps                47559023                       # Number of HB maps that are undone due to squashing
system.cpu0.rename.serializingInsts             22854                       # count of serializing insts renamed
system.cpu0.rename.tempSerializingInsts          2528                       # count of temporary serializing insts renamed
system.cpu0.rename.skidInsts                 27594789                       # count of insts added to the skid buffer
system.cpu0.memDep0.insertedLoads            32802857                       # Number of loads inserted to the mem dependence unit.
system.cpu0.memDep0.insertedStores           20509222                       # Number of stores inserted to the mem dependence unit.
system.cpu0.memDep0.conflictingLoads          8457699                       # Number of conflicting loads.
system.cpu0.memDep0.conflictingStores         3883547                       # Number of conflicting stores.
system.cpu0.iq.iqInstsAdded                 263704706                       # Number of instructions added to the IQ (excludes non-spec)
system.cpu0.iq.iqNonSpecInstsAdded               4263                       # Number of non-speculative instructions added to the IQ
system.cpu0.iq.iqInstsIssued                237528463                       # Number of instructions issued
system.cpu0.iq.iqSquashedInstsIssued          3603242                       # Number of squashed instructions issued
system.cpu0.iq.iqSquashedInstsExamined       30502494                       # Number of squashed instructions iterated over during squash; mainly for profiling
system.cpu0.iq.iqSquashedOperandsExamined    124356753                       # Number of squashed operands that are examined and possibly removed from graph
system.cpu0.iq.iqSquashedNonSpecRemoved           411                       # Number of squashed non-spec instructions that were removed
system.cpu0.iq.issued_per_cycle::samples    197998593                       # Number of insts issued each cycle
system.cpu0.iq.issued_per_cycle::mean        1.199647                       # Number of insts issued each cycle
system.cpu0.iq.issued_per_cycle::stdev       0.517271                       # Number of insts issued each cycle
system.cpu0.iq.issued_per_cycle::underflows            0      0.00%      0.00% # Number of insts issued each cycle
system.cpu0.iq.issued_per_cycle::0           10670280      5.39%      5.39% # Number of insts issued each cycle
system.cpu0.iq.issued_per_cycle::1          137128163     69.26%     74.65% # Number of insts issued each cycle
system.cpu0.iq.issued_per_cycle::2           50200150     25.35%    100.00% # Number of insts issued each cycle
system.cpu0.iq.issued_per_cycle::overflows            0      0.00%    100.00% # Number of insts issued each cycle
system.cpu0.iq.issued_per_cycle::min_value            0                       # Number of insts issued each cycle
system.cpu0.iq.issued_per_cycle::max_value            2                       # Number of insts issued each cycle
system.cpu0.iq.issued_per_cycle::total      197998593                       # Number of insts issued each cycle
system.cpu0.iq.fu_full::No_OpClass                  0      0.00%      0.00% # attempts to use FU when none available
system.cpu0.iq.fu_full::IntAlu              147998203     95.88%     95.88% # attempts to use FU when none available
system.cpu0.iq.fu_full::IntMult                     0      0.00%     95.88% # attempts to use FU when none available
system.cpu0.iq.fu_full::IntDiv                      0      0.00%     95.88% # attempts to use FU when none available
system.cpu0.iq.fu_full::FloatAdd                    0      0.00%     95.88% # attempts to use FU when none available
system.cpu0.iq.fu_full::FloatCmp                    0      0.00%     95.88% # attempts to use FU when none available
system.cpu0.iq.fu_full::FloatCvt                    0      0.00%     95.88% # attempts to use FU when none available
system.cpu0.iq.fu_full::FloatMult                   0      0.00%     95.88% # attempts to use FU when none available
system.cpu0.iq.fu_full::FloatMultAcc                0      0.00%     95.88% # attempts to use FU when none available
system.cpu0.iq.fu_full::FloatDiv                    0      0.00%     95.88% # attempts to use FU when none available
system.cpu0.iq.fu_full::FloatMisc                   0      0.00%     95.88% # attempts to use FU when none available
system.cpu0.iq.fu_full::FloatSqrt                   0      0.00%     95.88% # attempts to use FU when none available
system.cpu0.iq.fu_full::SimdAdd                     0      0.00%     95.88% # attempts to use FU when none available
system.cpu0.iq.fu_full::SimdAddAcc                  0      0.00%     95.88% # attempts to use FU when none available
system.cpu0.iq.fu_full::SimdAlu                     0      0.00%     95.88% # attempts to use FU when none available
system.cpu0.iq.fu_full::SimdCmp                     0      0.00%     95.88% # attempts to use FU when none available
system.cpu0.iq.fu_full::SimdCvt                     0      0.00%     95.88% # attempts to use FU when none available
system.cpu0.iq.fu_full::SimdMisc                    0      0.00%     95.88% # attempts to use FU when none available
system.cpu0.iq.fu_full::SimdMult                    0      0.00%     95.88% # attempts to use FU when none available
system.cpu0.iq.fu_full::SimdMultAcc                 0      0.00%     95.88% # attempts to use FU when none available
system.cpu0.iq.fu_full::SimdShift                   0      0.00%     95.88% # attempts to use FU when none available
system.cpu0.iq.fu_full::SimdShiftAcc                0      0.00%     95.88% # attempts to use FU when none available
system.cpu0.iq.fu_full::SimdSqrt                    0      0.00%     95.88% # attempts to use FU when none available
system.cpu0.iq.fu_full::SimdFloatAdd                0      0.00%     95.88% # attempts to use FU when none available
system.cpu0.iq.fu_full::SimdFloatAlu                0      0.00%     95.88% # attempts to use FU when none available
system.cpu0.iq.fu_full::SimdFloatCmp                0      0.00%     95.88% # attempts to use FU when none available
system.cpu0.iq.fu_full::SimdFloatCvt                0      0.00%     95.88% # attempts to use FU when none available
system.cpu0.iq.fu_full::SimdFloatDiv                0      0.00%     95.88% # attempts to use FU when none available
system.cpu0.iq.fu_full::SimdFloatMisc               0      0.00%     95.88% # attempts to use FU when none available
system.cpu0.iq.fu_full::SimdFloatMult               0      0.00%     95.88% # attempts to use FU when none available
system.cpu0.iq.fu_full::SimdFloatMultAcc            0      0.00%     95.88% # attempts to use FU when none available
system.cpu0.iq.fu_full::SimdFloatSqrt               0      0.00%     95.88% # attempts to use FU when none available
system.cpu0.iq.fu_full::MemRead               4144692      2.69%     98.57% # attempts to use FU when none available
system.cpu0.iq.fu_full::MemWrite              2213941      1.43%    100.00% # attempts to use FU when none available
system.cpu0.iq.fu_full::FloatMemRead                0      0.00%    100.00% # attempts to use FU when none available
system.cpu0.iq.fu_full::FloatMemWrite               0      0.00%    100.00% # attempts to use FU when none available
system.cpu0.iq.fu_full::IprAccess                   0      0.00%    100.00% # attempts to use FU when none available
system.cpu0.iq.fu_full::InstPrefetch                0      0.00%    100.00% # attempts to use FU when none available
system.cpu0.iq.FU_type_0::No_OpClass                0      0.00%      0.00% # Type of FU issued
system.cpu0.iq.FU_type_0::IntAlu            185291471     78.01%     78.01% # Type of FU issued
system.cpu0.iq.FU_type_0::IntMult             1326227      0.56%     78.57% # Type of FU issued
system.cpu0.iq.FU_type_0::IntDiv                    0      0.00%     78.57% # Type of FU issued
system.cpu0.iq.FU_type_0::FloatAdd                  0      0.00%     78.57% # Type of FU issued
system.cpu0.iq.FU_type_0::FloatCmp                  0      0.00%     78.57% # Type of FU issued
system.cpu0.iq.FU_type_0::FloatCvt                  0      0.00%     78.57% # Type of FU issued
system.cpu0.iq.FU_type_0::FloatMult                 0      0.00%     78.57% # Type of FU issued
system.cpu0.iq.FU_type_0::FloatMultAcc              0      0.00%     78.57% # Type of FU issued
system.cpu0.iq.FU_type_0::FloatDiv                  0      0.00%     78.57% # Type of FU issued
system.cpu0.iq.FU_type_0::FloatMisc                 0      0.00%     78.57% # Type of FU issued
system.cpu0.iq.FU_type_0::FloatSqrt                 0      0.00%     78.57% # Type of FU issued
system.cpu0.iq.FU_type_0::SimdAdd                   0      0.00%     78.57% # Type of FU issued
system.cpu0.iq.FU_type_0::SimdAddAcc                0      0.00%     78.57% # Type of FU issued
system.cpu0.iq.FU_type_0::SimdAlu                   0      0.00%     78.57% # Type of FU issued
system.cpu0.iq.FU_type_0::SimdCmp                   0      0.00%     78.57% # Type of FU issued
system.cpu0.iq.FU_type_0::SimdCvt                   0      0.00%     78.57% # Type of FU issued
system.cpu0.iq.FU_type_0::SimdMisc                  0      0.00%     78.57% # Type of FU issued
system.cpu0.iq.FU_type_0::SimdMult                  0      0.00%     78.57% # Type of FU issued
system.cpu0.iq.FU_type_0::SimdMultAcc               0      0.00%     78.57% # Type of FU issued
system.cpu0.iq.FU_type_0::SimdShift                 0      0.00%     78.57% # Type of FU issued
system.cpu0.iq.FU_type_0::SimdShiftAcc              0      0.00%     78.57% # Type of FU issued
system.cpu0.iq.FU_type_0::SimdSqrt                  0      0.00%     78.57% # Type of FU issued
system.cpu0.iq.FU_type_0::SimdFloatAdd              0      0.00%     78.57% # Type of FU issued
system.cpu0.iq.FU_type_0::SimdFloatAlu              0      0.00%     78.57% # Type of FU issued
system.cpu0.iq.FU_type_0::SimdFloatCmp              0      0.00%     78.57% # Type of FU issued
system.cpu0.iq.FU_type_0::SimdFloatCvt              0      0.00%     78.57% # Type of FU issued
system.cpu0.iq.FU_type_0::SimdFloatDiv              0      0.00%     78.57% # Type of FU issued
system.cpu0.iq.FU_type_0::SimdFloatMisc         20318      0.01%     78.58% # Type of FU issued
system.cpu0.iq.FU_type_0::SimdFloatMult             0      0.00%     78.58% # Type of FU issued
system.cpu0.iq.FU_type_0::SimdFloatMultAcc            0      0.00%     78.58% # Type of FU issued
system.cpu0.iq.FU_type_0::SimdFloatSqrt             0      0.00%     78.58% # Type of FU issued
system.cpu0.iq.FU_type_0::MemRead            31688212     13.34%     91.92% # Type of FU issued
system.cpu0.iq.FU_type_0::MemWrite           19202219      8.08%    100.00% # Type of FU issued
system.cpu0.iq.FU_type_0::FloatMemRead              0      0.00%    100.00% # Type of FU issued
system.cpu0.iq.FU_type_0::FloatMemWrite            16      0.00%    100.00% # Type of FU issued
system.cpu0.iq.FU_type_0::IprAccess                 0      0.00%    100.00% # Type of FU issued
system.cpu0.iq.FU_type_0::InstPrefetch              0      0.00%    100.00% # Type of FU issued
system.cpu0.iq.FU_type_0::total             237528463                       # Type of FU issued
system.cpu0.iq.rate                          1.199376                       # Inst issue rate
system.cpu0.iq.fu_busy_cnt                  154356836                       # FU busy when requested
system.cpu0.iq.fu_busy_rate                  0.649846                       # FU busy rate (busy events/executed inst)
system.cpu0.iq.int_inst_queue_reads         831015565                       # Number of integer instruction queue reads
system.cpu0.iq.int_inst_queue_writes        294215872                       # Number of integer instruction queue writes
system.cpu0.iq.int_inst_queue_wakeup_accesses    236724779                       # Number of integer instruction queue wakeup accesses
system.cpu0.iq.fp_inst_queue_reads                 32                       # Number of floating instruction queue reads
system.cpu0.iq.fp_inst_queue_writes                16                       # Number of floating instruction queue writes
system.cpu0.iq.fp_inst_queue_wakeup_accesses           16                       # Number of floating instruction queue wakeup accesses
system.cpu0.iq.int_alu_accesses             391885283                       # Number of integer alu accesses
system.cpu0.iq.fp_alu_accesses                     16                       # Number of floating point alu accesses
system.cpu0.iew.lsq.thread0.forwLoads         4862123                       # Number of loads that had data forwarded from stores
system.cpu0.iew.lsq.thread0.invAddrLoads            0                       # Number of loads ignored due to an invalid address
system.cpu0.iew.lsq.thread0.squashedLoads      2562789                       # Number of loads squashed
system.cpu0.iew.lsq.thread0.ignoredResponses          458                       # Number of memory responses ignored because the instruction is squashed
system.cpu0.iew.lsq.thread0.memOrderViolation         4462                       # Number of memory ordering violations
system.cpu0.iew.lsq.thread0.squashedStores      1684954                       # Number of stores squashed
system.cpu0.iew.lsq.thread0.invAddrSwpfs            0                       # Number of software prefetches ignored due to an invalid address
system.cpu0.iew.lsq.thread0.blockedLoads            0                       # Number of blocked loads due to partial load-store forwarding
system.cpu0.iew.lsq.thread0.rescheduledLoads       378301                       # Number of loads that were rescheduled
system.cpu0.iew.lsq.thread0.cacheBlocked          149                       # Number of times an access to memory failed due to the cache being blocked
system.cpu0.iew.iewIdleCycles                       0                       # Number of cycles IEW is idle
system.cpu0.iew.iewSquashCycles                928144                       # Number of cycles IEW is squashing
system.cpu0.iew.iewBlockCycles                3260061                       # Number of cycles IEW is blocking
system.cpu0.iew.iewUnblockCycles                17362                       # Number of cycles IEW is unblocking
system.cpu0.iew.iewDispatchedInsts          263709004                       # Number of instructions dispatched to IQ
system.cpu0.iew.iewDispSquashedInsts           149954                       # Number of squashed instructions skipped by dispatch
system.cpu0.iew.iewDispLoadInsts             32802857                       # Number of dispatched load instructions
system.cpu0.iew.iewDispStoreInsts            20509222                       # Number of dispatched store instructions
system.cpu0.iew.iewDispNonSpecInsts              2428                       # Number of dispatched non-speculative instructions
system.cpu0.iew.iewIQFullEvents                   172                       # Number of times the IQ has become full, causing a stall
system.cpu0.iew.iewLSQFullEvents                   65                       # Number of times the LSQ has become full, causing a stall
system.cpu0.iew.memOrderViolationEvents          4462                       # Number of memory order violations
system.cpu0.iew.predictedTakenIncorrect        489533                       # Number of branches that were predicted taken incorrectly
system.cpu0.iew.predictedNotTakenIncorrect       491632                       # Number of branches that were predicted not taken incorrectly
system.cpu0.iew.branchMispredicts              981165                       # Number of branch mispredicts detected at execute
system.cpu0.iew.iewExecutedInsts            237258032                       # Number of executed instructions
system.cpu0.iew.iewExecLoadInsts             31584293                       # Number of load instructions executed
system.cpu0.iew.iewExecSquashedInsts           270431                       # Number of squashed instructions skipped in execute
system.cpu0.iew.exec_swp                            0                       # number of swp insts executed
system.cpu0.iew.exec_nop                           35                       # number of nop insts executed
system.cpu0.iew.exec_refs                    50742392                       # number of memory reference insts executed
system.cpu0.iew.exec_branches                36366345                       # Number of branches executed
system.cpu0.iew.exec_stores                  19158099                       # Number of stores executed
system.cpu0.iew.exec_rate                    1.198011                       # Inst execution rate
system.cpu0.iew.wb_sent                     236762524                       # cumulative count of insts sent to commit
system.cpu0.iew.wb_count                    236724795                       # cumulative count of insts written-back
system.cpu0.iew.wb_producers                176367525                       # num instructions producing a value
system.cpu0.iew.wb_consumers                416750883                       # num instructions consuming a value
system.cpu0.iew.wb_rate                      1.195318                       # insts written-back per cycle
system.cpu0.iew.wb_fanout                    0.423197                       # average fanout of values written-back
system.cpu0.commit.commitSquashedInsts       30502533                       # The number of squashed insts skipped by commit
system.cpu0.commit.commitNonSpecStalls           3852                       # The number of times commit has been forced to stall to communicate backwards
system.cpu0.commit.branchMispredicts           923744                       # The number of times a branch was mispredicted
system.cpu0.commit.committed_per_cycle::samples    193815447                       # Number of insts commited each cycle
system.cpu0.commit.committed_per_cycle::mean     1.203240                       # Number of insts commited each cycle
system.cpu0.commit.committed_per_cycle::stdev     1.078519                       # Number of insts commited each cycle
system.cpu0.commit.committed_per_cycle::underflows            0      0.00%      0.00% # Number of insts commited each cycle
system.cpu0.commit.committed_per_cycle::0     19983161     10.31%     10.31% # Number of insts commited each cycle
system.cpu0.commit.committed_per_cycle::1    144677759     74.65%     84.96% # Number of insts commited each cycle
system.cpu0.commit.committed_per_cycle::2     18354169      9.47%     94.43% # Number of insts commited each cycle
system.cpu0.commit.committed_per_cycle::3      4230628      2.18%     96.61% # Number of insts commited each cycle
system.cpu0.commit.committed_per_cycle::4      2297408      1.19%     97.80% # Number of insts commited each cycle
system.cpu0.commit.committed_per_cycle::5       447185      0.23%     98.03% # Number of insts commited each cycle
system.cpu0.commit.committed_per_cycle::6       302731      0.16%     98.18% # Number of insts commited each cycle
system.cpu0.commit.committed_per_cycle::7      2292697      1.18%     99.37% # Number of insts commited each cycle
system.cpu0.commit.committed_per_cycle::8      1229709      0.63%    100.00% # Number of insts commited each cycle
system.cpu0.commit.committed_per_cycle::overflows            0      0.00%    100.00% # Number of insts commited each cycle
system.cpu0.commit.committed_per_cycle::min_value            0                       # Number of insts commited each cycle
system.cpu0.commit.committed_per_cycle::max_value            8                       # Number of insts commited each cycle
system.cpu0.commit.committed_per_cycle::total    193815447                       # Number of insts commited each cycle
system.cpu0.commit.committedInsts           206505263                       # Number of instructions committed
system.cpu0.commit.committedOps             233206475                       # Number of ops (including micro ops) committed
system.cpu0.commit.swp_count                        0                       # Number of s/w prefetches committed
system.cpu0.commit.refs                      49064336                       # Number of memory references committed
system.cpu0.commit.loads                     30240068                       # Number of loads committed
system.cpu0.commit.membars                       1830                       # Number of memory barriers committed
system.cpu0.commit.branches                  36032662                       # Number of branches committed
system.cpu0.commit.fp_insts                        16                       # Number of committed floating point instructions.
system.cpu0.commit.int_insts                212340680                       # Number of committed integer instructions.
system.cpu0.commit.function_calls             6353262                       # Number of function calls committed.
system.cpu0.commit.op_class_0::No_OpClass            0      0.00%      0.00% # Class of committed instruction
system.cpu0.commit.op_class_0::IntAlu       182843995     78.40%     78.40% # Class of committed instruction
system.cpu0.commit.op_class_0::IntMult        1277826      0.55%     78.95% # Class of committed instruction
system.cpu0.commit.op_class_0::IntDiv               0      0.00%     78.95% # Class of committed instruction
system.cpu0.commit.op_class_0::FloatAdd             0      0.00%     78.95% # Class of committed instruction
system.cpu0.commit.op_class_0::FloatCmp             0      0.00%     78.95% # Class of committed instruction
system.cpu0.commit.op_class_0::FloatCvt             0      0.00%     78.95% # Class of committed instruction
system.cpu0.commit.op_class_0::FloatMult            0      0.00%     78.95% # Class of committed instruction
system.cpu0.commit.op_class_0::FloatMultAcc            0      0.00%     78.95% # Class of committed instruction
system.cpu0.commit.op_class_0::FloatDiv             0      0.00%     78.95% # Class of committed instruction
system.cpu0.commit.op_class_0::FloatMisc            0      0.00%     78.95% # Class of committed instruction
system.cpu0.commit.op_class_0::FloatSqrt            0      0.00%     78.95% # Class of committed instruction
system.cpu0.commit.op_class_0::SimdAdd              0      0.00%     78.95% # Class of committed instruction
system.cpu0.commit.op_class_0::SimdAddAcc            0      0.00%     78.95% # Class of committed instruction
system.cpu0.commit.op_class_0::SimdAlu              0      0.00%     78.95% # Class of committed instruction
system.cpu0.commit.op_class_0::SimdCmp              0      0.00%     78.95% # Class of committed instruction
system.cpu0.commit.op_class_0::SimdCvt              0      0.00%     78.95% # Class of committed instruction
system.cpu0.commit.op_class_0::SimdMisc             0      0.00%     78.95% # Class of committed instruction
system.cpu0.commit.op_class_0::SimdMult             0      0.00%     78.95% # Class of committed instruction
system.cpu0.commit.op_class_0::SimdMultAcc            0      0.00%     78.95% # Class of committed instruction
system.cpu0.commit.op_class_0::SimdShift            0      0.00%     78.95% # Class of committed instruction
system.cpu0.commit.op_class_0::SimdShiftAcc            0      0.00%     78.95% # Class of committed instruction
system.cpu0.commit.op_class_0::SimdSqrt             0      0.00%     78.95% # Class of committed instruction
system.cpu0.commit.op_class_0::SimdFloatAdd            0      0.00%     78.95% # Class of committed instruction
system.cpu0.commit.op_class_0::SimdFloatAlu            0      0.00%     78.95% # Class of committed instruction
system.cpu0.commit.op_class_0::SimdFloatCmp            0      0.00%     78.95% # Class of committed instruction
system.cpu0.commit.op_class_0::SimdFloatCvt            0      0.00%     78.95% # Class of committed instruction
system.cpu0.commit.op_class_0::SimdFloatDiv            0      0.00%     78.95% # Class of committed instruction
system.cpu0.commit.op_class_0::SimdFloatMisc        20318      0.01%     78.96% # Class of committed instruction
system.cpu0.commit.op_class_0::SimdFloatMult            0      0.00%     78.96% # Class of committed instruction
system.cpu0.commit.op_class_0::SimdFloatMultAcc            0      0.00%     78.96% # Class of committed instruction
system.cpu0.commit.op_class_0::SimdFloatSqrt            0      0.00%     78.96% # Class of committed instruction
system.cpu0.commit.op_class_0::MemRead       30240068     12.97%     91.93% # Class of committed instruction
system.cpu0.commit.op_class_0::MemWrite      18824252      8.07%    100.00% # Class of committed instruction
system.cpu0.commit.op_class_0::FloatMemRead            0      0.00%    100.00% # Class of committed instruction
system.cpu0.commit.op_class_0::FloatMemWrite           16      0.00%    100.00% # Class of committed instruction
system.cpu0.commit.op_class_0::IprAccess            0      0.00%    100.00% # Class of committed instruction
system.cpu0.commit.op_class_0::InstPrefetch            0      0.00%    100.00% # Class of committed instruction
system.cpu0.commit.op_class_0::total        233206475                       # Class of committed instruction
system.cpu0.commit.bw_lim_events              1229709                       # number cycles where commit BW limit reached
system.cpu0.rob.rob_reads                   456286839                       # The number of ROB reads
system.cpu0.rob.rob_writes                  531601747                       # The number of ROB writes
system.cpu0.timesIdled                           2668                       # Number of times that the entire CPU went into an idle state and unscheduled itself
system.cpu0.idleCycles                          44764                       # Total number of cycles that the CPU has spent unscheduled due to idling
system.cpu0.committedInsts                  206505263                       # Number of Instructions Simulated
system.cpu0.committedOps                    233206475                       # Number of Ops (including micro ops) Simulated
system.cpu0.cpi                              0.959023                       # CPI: Cycles Per Instruction
system.cpu0.cpi_total                        0.959023                       # CPI: Total CPI of All Threads
system.cpu0.ipc                              1.042728                       # IPC: Instructions Per Cycle
system.cpu0.ipc_total                        1.042728                       # IPC: Total IPC of All Threads
system.cpu0.int_regfile_reads               280989207                       # number of integer regfile reads
system.cpu0.int_regfile_writes              168038612                       # number of integer regfile writes
system.cpu0.fp_regfile_reads                      336                       # number of floating regfile reads
system.cpu0.cc_regfile_reads                814003916                       # number of cc regfile reads
system.cpu0.cc_regfile_writes               123361784                       # number of cc regfile writes
system.cpu0.misc_regfile_reads               49622066                       # number of misc regfile reads
system.cpu0.misc_regfile_writes                  2933                       # number of misc regfile writes
system.cpu0.dcache.tags.pwrStateResidencyTicks::UNDEFINED 198043356000                       # Cumulative time (in ticks) in various power states
system.cpu0.dcache.tags.replacements            32157                       # number of replacements
system.cpu0.dcache.tags.tagsinuse          503.950674                       # Cycle average of tags in use
system.cpu0.dcache.tags.total_refs           43999001                       # Total number of references to valid blocks.
system.cpu0.dcache.tags.sampled_refs            32669                       # Sample count of references to valid blocks.
system.cpu0.dcache.tags.avg_refs          1346.811993                       # Average number of references to valid blocks.
system.cpu0.dcache.tags.warmup_cycle      38667866000                       # Cycle when the warmup percentage was hit.
system.cpu0.dcache.tags.occ_blocks::cpu0.data   503.950674                       # Average occupied blocks per requestor
system.cpu0.dcache.tags.occ_percent::cpu0.data     0.984279                       # Average percentage of cache occupancy
system.cpu0.dcache.tags.occ_percent::total     0.984279                       # Average percentage of cache occupancy
system.cpu0.dcache.tags.occ_task_id_blocks::1024          512                       # Occupied blocks per task id
system.cpu0.dcache.tags.age_task_id_blocks_1024::0           34                       # Occupied blocks per task id
system.cpu0.dcache.tags.age_task_id_blocks_1024::1           39                       # Occupied blocks per task id
system.cpu0.dcache.tags.age_task_id_blocks_1024::2           31                       # Occupied blocks per task id
system.cpu0.dcache.tags.age_task_id_blocks_1024::3          148                       # Occupied blocks per task id
system.cpu0.dcache.tags.age_task_id_blocks_1024::4          260                       # Occupied blocks per task id
system.cpu0.dcache.tags.occ_task_id_percent::1024            1                       # Percentage of cache occupancy per task id
system.cpu0.dcache.tags.tag_accesses         88128454                       # Number of tag accesses
system.cpu0.dcache.tags.data_accesses        88128454                       # Number of data accesses
system.cpu0.dcache.pwrStateResidencyTicks::UNDEFINED 198043356000                       # Cumulative time (in ticks) in various power states
system.cpu0.dcache.ReadReq_hits::cpu0.data     25335792                       # number of ReadReq hits
system.cpu0.dcache.ReadReq_hits::total       25335792                       # number of ReadReq hits
system.cpu0.dcache.WriteReq_hits::cpu0.data     18660275                       # number of WriteReq hits
system.cpu0.dcache.WriteReq_hits::total      18660275                       # number of WriteReq hits
system.cpu0.dcache.LoadLockedReq_hits::cpu0.data         1410                       # number of LoadLockedReq hits
system.cpu0.dcache.LoadLockedReq_hits::total         1410                       # number of LoadLockedReq hits
system.cpu0.dcache.StoreCondReq_hits::cpu0.data         1292                       # number of StoreCondReq hits
system.cpu0.dcache.StoreCondReq_hits::total         1292                       # number of StoreCondReq hits
system.cpu0.dcache.demand_hits::cpu0.data     43996067                       # number of demand (read+write) hits
system.cpu0.dcache.demand_hits::total        43996067                       # number of demand (read+write) hits
system.cpu0.dcache.overall_hits::cpu0.data     43996067                       # number of overall hits
system.cpu0.dcache.overall_hits::total       43996067                       # number of overall hits
system.cpu0.dcache.ReadReq_misses::cpu0.data        36900                       # number of ReadReq misses
system.cpu0.dcache.ReadReq_misses::total        36900                       # number of ReadReq misses
system.cpu0.dcache.WriteReq_misses::cpu0.data        12005                       # number of WriteReq misses
system.cpu0.dcache.WriteReq_misses::total        12005                       # number of WriteReq misses
system.cpu0.dcache.LoadLockedReq_misses::cpu0.data            8                       # number of LoadLockedReq misses
system.cpu0.dcache.LoadLockedReq_misses::total            8                       # number of LoadLockedReq misses
system.cpu0.dcache.StoreCondReq_misses::cpu0.data          102                       # number of StoreCondReq misses
system.cpu0.dcache.StoreCondReq_misses::total          102                       # number of StoreCondReq misses
system.cpu0.dcache.demand_misses::cpu0.data        48905                       # number of demand (read+write) misses
system.cpu0.dcache.demand_misses::total         48905                       # number of demand (read+write) misses
system.cpu0.dcache.overall_misses::cpu0.data        48905                       # number of overall misses
system.cpu0.dcache.overall_misses::total        48905                       # number of overall misses
system.cpu0.dcache.ReadReq_miss_latency::cpu0.data    564188000                       # number of ReadReq miss cycles
system.cpu0.dcache.ReadReq_miss_latency::total    564188000                       # number of ReadReq miss cycles
system.cpu0.dcache.WriteReq_miss_latency::cpu0.data    351757992                       # number of WriteReq miss cycles
system.cpu0.dcache.WriteReq_miss_latency::total    351757992                       # number of WriteReq miss cycles
system.cpu0.dcache.LoadLockedReq_miss_latency::cpu0.data       172000                       # number of LoadLockedReq miss cycles
system.cpu0.dcache.LoadLockedReq_miss_latency::total       172000                       # number of LoadLockedReq miss cycles
system.cpu0.dcache.StoreCondReq_miss_latency::cpu0.data      1080000                       # number of StoreCondReq miss cycles
system.cpu0.dcache.StoreCondReq_miss_latency::total      1080000                       # number of StoreCondReq miss cycles
system.cpu0.dcache.StoreCondFailReq_miss_latency::cpu0.data        19000                       # number of StoreCondFailReq miss cycles
system.cpu0.dcache.StoreCondFailReq_miss_latency::total        19000                       # number of StoreCondFailReq miss cycles
system.cpu0.dcache.demand_miss_latency::cpu0.data    915945992                       # number of demand (read+write) miss cycles
system.cpu0.dcache.demand_miss_latency::total    915945992                       # number of demand (read+write) miss cycles
system.cpu0.dcache.overall_miss_latency::cpu0.data    915945992                       # number of overall miss cycles
system.cpu0.dcache.overall_miss_latency::total    915945992                       # number of overall miss cycles
system.cpu0.dcache.ReadReq_accesses::cpu0.data     25372692                       # number of ReadReq accesses(hits+misses)
system.cpu0.dcache.ReadReq_accesses::total     25372692                       # number of ReadReq accesses(hits+misses)
system.cpu0.dcache.WriteReq_accesses::cpu0.data     18672280                       # number of WriteReq accesses(hits+misses)
system.cpu0.dcache.WriteReq_accesses::total     18672280                       # number of WriteReq accesses(hits+misses)
system.cpu0.dcache.LoadLockedReq_accesses::cpu0.data         1418                       # number of LoadLockedReq accesses(hits+misses)
system.cpu0.dcache.LoadLockedReq_accesses::total         1418                       # number of LoadLockedReq accesses(hits+misses)
system.cpu0.dcache.StoreCondReq_accesses::cpu0.data         1394                       # number of StoreCondReq accesses(hits+misses)
system.cpu0.dcache.StoreCondReq_accesses::total         1394                       # number of StoreCondReq accesses(hits+misses)
system.cpu0.dcache.demand_accesses::cpu0.data     44044972                       # number of demand (read+write) accesses
system.cpu0.dcache.demand_accesses::total     44044972                       # number of demand (read+write) accesses
system.cpu0.dcache.overall_accesses::cpu0.data     44044972                       # number of overall (read+write) accesses
system.cpu0.dcache.overall_accesses::total     44044972                       # number of overall (read+write) accesses
system.cpu0.dcache.ReadReq_miss_rate::cpu0.data     0.001454                       # miss rate for ReadReq accesses
system.cpu0.dcache.ReadReq_miss_rate::total     0.001454                       # miss rate for ReadReq accesses
system.cpu0.dcache.WriteReq_miss_rate::cpu0.data     0.000643                       # miss rate for WriteReq accesses
system.cpu0.dcache.WriteReq_miss_rate::total     0.000643                       # miss rate for WriteReq accesses
system.cpu0.dcache.LoadLockedReq_miss_rate::cpu0.data     0.005642                       # miss rate for LoadLockedReq accesses
system.cpu0.dcache.LoadLockedReq_miss_rate::total     0.005642                       # miss rate for LoadLockedReq accesses
system.cpu0.dcache.StoreCondReq_miss_rate::cpu0.data     0.073171                       # miss rate for StoreCondReq accesses
system.cpu0.dcache.StoreCondReq_miss_rate::total     0.073171                       # miss rate for StoreCondReq accesses
system.cpu0.dcache.demand_miss_rate::cpu0.data     0.001110                       # miss rate for demand accesses
system.cpu0.dcache.demand_miss_rate::total     0.001110                       # miss rate for demand accesses
system.cpu0.dcache.overall_miss_rate::cpu0.data     0.001110                       # miss rate for overall accesses
system.cpu0.dcache.overall_miss_rate::total     0.001110                       # miss rate for overall accesses
system.cpu0.dcache.ReadReq_avg_miss_latency::cpu0.data 15289.647696                       # average ReadReq miss latency
system.cpu0.dcache.ReadReq_avg_miss_latency::total 15289.647696                       # average ReadReq miss latency
system.cpu0.dcache.WriteReq_avg_miss_latency::cpu0.data 29300.957268                       # average WriteReq miss latency
system.cpu0.dcache.WriteReq_avg_miss_latency::total 29300.957268                       # average WriteReq miss latency
system.cpu0.dcache.LoadLockedReq_avg_miss_latency::cpu0.data        21500                       # average LoadLockedReq miss latency
system.cpu0.dcache.LoadLockedReq_avg_miss_latency::total        21500                       # average LoadLockedReq miss latency
system.cpu0.dcache.StoreCondReq_avg_miss_latency::cpu0.data 10588.235294                       # average StoreCondReq miss latency
system.cpu0.dcache.StoreCondReq_avg_miss_latency::total 10588.235294                       # average StoreCondReq miss latency
system.cpu0.dcache.StoreCondFailReq_avg_miss_latency::cpu0.data          inf                       # average StoreCondFailReq miss latency
system.cpu0.dcache.StoreCondFailReq_avg_miss_latency::total          inf                       # average StoreCondFailReq miss latency
system.cpu0.dcache.demand_avg_miss_latency::cpu0.data 18729.086842                       # average overall miss latency
system.cpu0.dcache.demand_avg_miss_latency::total 18729.086842                       # average overall miss latency
system.cpu0.dcache.overall_avg_miss_latency::cpu0.data 18729.086842                       # average overall miss latency
system.cpu0.dcache.overall_avg_miss_latency::total 18729.086842                       # average overall miss latency
system.cpu0.dcache.blocked_cycles::no_mshrs          248                       # number of cycles access was blocked
system.cpu0.dcache.blocked_cycles::no_targets            0                       # number of cycles access was blocked
system.cpu0.dcache.blocked::no_mshrs               16                       # number of cycles access was blocked
system.cpu0.dcache.blocked::no_targets              0                       # number of cycles access was blocked
system.cpu0.dcache.avg_blocked_cycles::no_mshrs    15.500000                       # average number of cycles each access was blocked
system.cpu0.dcache.avg_blocked_cycles::no_targets          nan                       # average number of cycles each access was blocked
system.cpu0.dcache.writebacks::writebacks        13251                       # number of writebacks
system.cpu0.dcache.writebacks::total            13251                       # number of writebacks
system.cpu0.dcache.ReadReq_mshr_hits::cpu0.data        11811                       # number of ReadReq MSHR hits
system.cpu0.dcache.ReadReq_mshr_hits::total        11811                       # number of ReadReq MSHR hits
system.cpu0.dcache.WriteReq_mshr_hits::cpu0.data         4124                       # number of WriteReq MSHR hits
system.cpu0.dcache.WriteReq_mshr_hits::total         4124                       # number of WriteReq MSHR hits
system.cpu0.dcache.LoadLockedReq_mshr_hits::cpu0.data            4                       # number of LoadLockedReq MSHR hits
system.cpu0.dcache.LoadLockedReq_mshr_hits::total            4                       # number of LoadLockedReq MSHR hits
system.cpu0.dcache.demand_mshr_hits::cpu0.data        15935                       # number of demand (read+write) MSHR hits
system.cpu0.dcache.demand_mshr_hits::total        15935                       # number of demand (read+write) MSHR hits
system.cpu0.dcache.overall_mshr_hits::cpu0.data        15935                       # number of overall MSHR hits
system.cpu0.dcache.overall_mshr_hits::total        15935                       # number of overall MSHR hits
system.cpu0.dcache.ReadReq_mshr_misses::cpu0.data        25089                       # number of ReadReq MSHR misses
system.cpu0.dcache.ReadReq_mshr_misses::total        25089                       # number of ReadReq MSHR misses
system.cpu0.dcache.WriteReq_mshr_misses::cpu0.data         7881                       # number of WriteReq MSHR misses
system.cpu0.dcache.WriteReq_mshr_misses::total         7881                       # number of WriteReq MSHR misses
system.cpu0.dcache.LoadLockedReq_mshr_misses::cpu0.data            4                       # number of LoadLockedReq MSHR misses
system.cpu0.dcache.LoadLockedReq_mshr_misses::total            4                       # number of LoadLockedReq MSHR misses
system.cpu0.dcache.StoreCondReq_mshr_misses::cpu0.data          102                       # number of StoreCondReq MSHR misses
system.cpu0.dcache.StoreCondReq_mshr_misses::total          102                       # number of StoreCondReq MSHR misses
system.cpu0.dcache.demand_mshr_misses::cpu0.data        32970                       # number of demand (read+write) MSHR misses
system.cpu0.dcache.demand_mshr_misses::total        32970                       # number of demand (read+write) MSHR misses
system.cpu0.dcache.overall_mshr_misses::cpu0.data        32970                       # number of overall MSHR misses
system.cpu0.dcache.overall_mshr_misses::total        32970                       # number of overall MSHR misses
system.cpu0.dcache.ReadReq_mshr_miss_latency::cpu0.data    365843000                       # number of ReadReq MSHR miss cycles
system.cpu0.dcache.ReadReq_mshr_miss_latency::total    365843000                       # number of ReadReq MSHR miss cycles
system.cpu0.dcache.WriteReq_mshr_miss_latency::cpu0.data    183867994                       # number of WriteReq MSHR miss cycles
system.cpu0.dcache.WriteReq_mshr_miss_latency::total    183867994                       # number of WriteReq MSHR miss cycles
system.cpu0.dcache.LoadLockedReq_mshr_miss_latency::cpu0.data        36000                       # number of LoadLockedReq MSHR miss cycles
system.cpu0.dcache.LoadLockedReq_mshr_miss_latency::total        36000                       # number of LoadLockedReq MSHR miss cycles
system.cpu0.dcache.StoreCondReq_mshr_miss_latency::cpu0.data       877500                       # number of StoreCondReq MSHR miss cycles
system.cpu0.dcache.StoreCondReq_mshr_miss_latency::total       877500                       # number of StoreCondReq MSHR miss cycles
system.cpu0.dcache.StoreCondFailReq_mshr_miss_latency::cpu0.data        17000                       # number of StoreCondFailReq MSHR miss cycles
system.cpu0.dcache.StoreCondFailReq_mshr_miss_latency::total        17000                       # number of StoreCondFailReq MSHR miss cycles
system.cpu0.dcache.demand_mshr_miss_latency::cpu0.data    549710994                       # number of demand (read+write) MSHR miss cycles
system.cpu0.dcache.demand_mshr_miss_latency::total    549710994                       # number of demand (read+write) MSHR miss cycles
system.cpu0.dcache.overall_mshr_miss_latency::cpu0.data    549710994                       # number of overall MSHR miss cycles
system.cpu0.dcache.overall_mshr_miss_latency::total    549710994                       # number of overall MSHR miss cycles
system.cpu0.dcache.ReadReq_mshr_miss_rate::cpu0.data     0.000989                       # mshr miss rate for ReadReq accesses
system.cpu0.dcache.ReadReq_mshr_miss_rate::total     0.000989                       # mshr miss rate for ReadReq accesses
system.cpu0.dcache.WriteReq_mshr_miss_rate::cpu0.data     0.000422                       # mshr miss rate for WriteReq accesses
system.cpu0.dcache.WriteReq_mshr_miss_rate::total     0.000422                       # mshr miss rate for WriteReq accesses
system.cpu0.dcache.LoadLockedReq_mshr_miss_rate::cpu0.data     0.002821                       # mshr miss rate for LoadLockedReq accesses
system.cpu0.dcache.LoadLockedReq_mshr_miss_rate::total     0.002821                       # mshr miss rate for LoadLockedReq accesses
system.cpu0.dcache.StoreCondReq_mshr_miss_rate::cpu0.data     0.073171                       # mshr miss rate for StoreCondReq accesses
system.cpu0.dcache.StoreCondReq_mshr_miss_rate::total     0.073171                       # mshr miss rate for StoreCondReq accesses
system.cpu0.dcache.demand_mshr_miss_rate::cpu0.data     0.000749                       # mshr miss rate for demand accesses
system.cpu0.dcache.demand_mshr_miss_rate::total     0.000749                       # mshr miss rate for demand accesses
system.cpu0.dcache.overall_mshr_miss_rate::cpu0.data     0.000749                       # mshr miss rate for overall accesses
system.cpu0.dcache.overall_mshr_miss_rate::total     0.000749                       # mshr miss rate for overall accesses
system.cpu0.dcache.ReadReq_avg_mshr_miss_latency::cpu0.data 14581.808761                       # average ReadReq mshr miss latency
system.cpu0.dcache.ReadReq_avg_mshr_miss_latency::total 14581.808761                       # average ReadReq mshr miss latency
system.cpu0.dcache.WriteReq_avg_mshr_miss_latency::cpu0.data 23330.541048                       # average WriteReq mshr miss latency
system.cpu0.dcache.WriteReq_avg_mshr_miss_latency::total 23330.541048                       # average WriteReq mshr miss latency
system.cpu0.dcache.LoadLockedReq_avg_mshr_miss_latency::cpu0.data         9000                       # average LoadLockedReq mshr miss latency
system.cpu0.dcache.LoadLockedReq_avg_mshr_miss_latency::total         9000                       # average LoadLockedReq mshr miss latency
system.cpu0.dcache.StoreCondReq_avg_mshr_miss_latency::cpu0.data  8602.941176                       # average StoreCondReq mshr miss latency
system.cpu0.dcache.StoreCondReq_avg_mshr_miss_latency::total  8602.941176                       # average StoreCondReq mshr miss latency
system.cpu0.dcache.StoreCondFailReq_avg_mshr_miss_latency::cpu0.data          inf                       # average StoreCondFailReq mshr miss latency
system.cpu0.dcache.StoreCondFailReq_avg_mshr_miss_latency::total          inf                       # average StoreCondFailReq mshr miss latency
system.cpu0.dcache.demand_avg_mshr_miss_latency::cpu0.data 16673.066242                       # average overall mshr miss latency
system.cpu0.dcache.demand_avg_mshr_miss_latency::total 16673.066242                       # average overall mshr miss latency
system.cpu0.dcache.overall_avg_mshr_miss_latency::cpu0.data 16673.066242                       # average overall mshr miss latency
system.cpu0.dcache.overall_avg_mshr_miss_latency::total 16673.066242                       # average overall mshr miss latency
system.cpu0.icache.tags.pwrStateResidencyTicks::UNDEFINED 198043356000                       # Cumulative time (in ticks) in various power states
system.cpu0.icache.tags.replacements           111378                       # number of replacements
system.cpu0.icache.tags.tagsinuse          504.929328                       # Cycle average of tags in use
system.cpu0.icache.tags.total_refs           35180318                       # Total number of references to valid blocks.
system.cpu0.icache.tags.sampled_refs           111889                       # Sample count of references to valid blocks.
system.cpu0.icache.tags.avg_refs           314.421596                       # Average number of references to valid blocks.
system.cpu0.icache.tags.warmup_cycle                0                       # Cycle when the warmup percentage was hit.
system.cpu0.icache.tags.occ_blocks::cpu0.inst   504.929328                       # Average occupied blocks per requestor
system.cpu0.icache.tags.occ_percent::cpu0.inst     0.986190                       # Average percentage of cache occupancy
system.cpu0.icache.tags.occ_percent::total     0.986190                       # Average percentage of cache occupancy
system.cpu0.icache.tags.occ_task_id_blocks::1024          511                       # Occupied blocks per task id
system.cpu0.icache.tags.age_task_id_blocks_1024::0           94                       # Occupied blocks per task id
system.cpu0.icache.tags.age_task_id_blocks_1024::1          172                       # Occupied blocks per task id
system.cpu0.icache.tags.age_task_id_blocks_1024::2           67                       # Occupied blocks per task id
system.cpu0.icache.tags.age_task_id_blocks_1024::3           61                       # Occupied blocks per task id
system.cpu0.icache.tags.age_task_id_blocks_1024::4          117                       # Occupied blocks per task id
system.cpu0.icache.tags.occ_task_id_percent::1024     0.998047                       # Percentage of cache occupancy per task id
system.cpu0.icache.tags.tag_accesses         70698397                       # Number of tag accesses
system.cpu0.icache.tags.data_accesses        70698397                       # Number of data accesses
system.cpu0.icache.pwrStateResidencyTicks::UNDEFINED 198043356000                       # Cumulative time (in ticks) in various power states
system.cpu0.icache.ReadReq_hits::cpu0.inst     35180318                       # number of ReadReq hits
system.cpu0.icache.ReadReq_hits::total       35180318                       # number of ReadReq hits
system.cpu0.icache.demand_hits::cpu0.inst     35180318                       # number of demand (read+write) hits
system.cpu0.icache.demand_hits::total        35180318                       # number of demand (read+write) hits
[...]
system.l2.demand_mshr_miss_latency::cpu2.inst      8445500                       # number of demand (read+write) MSHR miss cycles
system.l2.demand_mshr_miss_latency::cpu2.data     59392500                       # number of demand (read+write) MSHR miss cycles
system.l2.demand_mshr_miss_latency::total    323662500                       # number of demand (read+write) MSHR miss cycles
system.l2.overall_mshr_miss_latency::cpu0.inst     78239000                       # number of overall MSHR miss cycles
system.l2.overall_mshr_miss_latency::cpu0.data    107726500                       # number of overall MSHR miss cycles
system.l2.overall_mshr_miss_latency::cpu1.inst      2460500                       # number of overall MSHR miss cycles
system.l2.overall_mshr_miss_latency::cpu1.data     67398500                       # number of overall MSHR miss cycles
system.l2.overall_mshr_miss_latency::cpu2.inst      8445500                       # number of overall MSHR miss cycles
system.l2.overall_mshr_miss_latency::cpu2.data     59392500                       # number of overall MSHR miss cycles
system.l2.overall_mshr_miss_latency::total    323662500                       # number of overall MSHR miss cycles
system.l2.CleanEvict_mshr_miss_rate::writebacks          inf                       # mshr miss rate for CleanEvict accesses
system.l2.CleanEvict_mshr_miss_rate::total          inf                       # mshr miss rate for CleanEvict accesses
system.l2.ReadExReq_mshr_miss_rate::cpu0.data     0.209929                       # mshr miss rate for ReadExReq accesses
system.l2.ReadExReq_mshr_miss_rate::cpu1.data     0.895180                       # mshr miss rate for ReadExReq accesses
system.l2.ReadExReq_mshr_miss_rate::cpu2.data     0.902249                       # mshr miss rate for ReadExReq accesses
system.l2.ReadExReq_mshr_miss_rate::total     0.375905                       # mshr miss rate for ReadExReq accesses
system.l2.ReadCleanReq_mshr_miss_rate::cpu0.inst     0.013656                       # mshr miss rate for ReadCleanReq accesses
system.l2.ReadCleanReq_mshr_miss_rate::cpu1.inst     0.001851                       # mshr miss rate for ReadCleanReq accesses
system.l2.ReadCleanReq_mshr_miss_rate::cpu2.inst     0.007225                       # mshr miss rate for ReadCleanReq accesses
system.l2.ReadCleanReq_mshr_miss_rate::total     0.010837                       # mshr miss rate for ReadCleanReq accesses
system.l2.ReadSharedReq_mshr_miss_rate::cpu0.data     0.019256                       # mshr miss rate for ReadSharedReq accesses
system.l2.ReadSharedReq_mshr_miss_rate::cpu1.data     0.130890                       # mshr miss rate for ReadSharedReq accesses
system.l2.ReadSharedReq_mshr_miss_rate::cpu2.data     0.114723                       # mshr miss rate for ReadSharedReq accesses
system.l2.ReadSharedReq_mshr_miss_rate::total     0.027687                       # mshr miss rate for ReadSharedReq accesses
system.l2.demand_mshr_miss_rate::cpu0.inst     0.013656                       # mshr miss rate for demand accesses
system.l2.demand_mshr_miss_rate::cpu0.data     0.064643                       # mshr miss rate for demand accesses
system.l2.demand_mshr_miss_rate::cpu1.inst     0.001851                       # mshr miss rate for demand accesses
system.l2.demand_mshr_miss_rate::cpu1.data     0.538117                       # mshr miss rate for demand accesses
system.l2.demand_mshr_miss_rate::cpu2.inst     0.007225                       # mshr miss rate for demand accesses
system.l2.demand_mshr_miss_rate::cpu2.data     0.528156                       # mshr miss rate for demand accesses
system.l2.demand_mshr_miss_rate::total       0.031988                       # mshr miss rate for demand accesses
system.l2.overall_mshr_miss_rate::cpu0.inst     0.013656                       # mshr miss rate for overall accesses
system.l2.overall_mshr_miss_rate::cpu0.data     0.064643                       # mshr miss rate for overall accesses
system.l2.overall_mshr_miss_rate::cpu1.inst     0.001851                       # mshr miss rate for overall accesses
system.l2.overall_mshr_miss_rate::cpu1.data     0.538117                       # mshr miss rate for overall accesses
system.l2.overall_mshr_miss_rate::cpu2.inst     0.007225                       # mshr miss rate for overall accesses
system.l2.overall_mshr_miss_rate::cpu2.data     0.528156                       # mshr miss rate for overall accesses
system.l2.overall_mshr_miss_rate::total      0.031988                       # mshr miss rate for overall accesses
system.l2.ReadExReq_avg_mshr_miss_latency::cpu0.data 51058.353808                       # average ReadExReq mshr miss latency
system.l2.ReadExReq_avg_mshr_miss_latency::cpu1.data 51017.948718                       # average ReadExReq mshr miss latency
system.l2.ReadExReq_avg_mshr_miss_latency::cpu2.data 51033.077661                       # average ReadExReq mshr miss latency
system.l2.ReadExReq_avg_mshr_miss_latency::total 51039.182505                       # average ReadExReq mshr miss latency
system.l2.ReadCleanReq_avg_mshr_miss_latency::cpu0.inst 51203.534031                       # average ReadCleanReq mshr miss latency
system.l2.ReadCleanReq_avg_mshr_miss_latency::cpu1.inst 51260.416667                       # average ReadCleanReq mshr miss latency
system.l2.ReadCleanReq_avg_mshr_miss_latency::cpu2.inst 51184.848485                       # average ReadCleanReq mshr miss latency
system.l2.ReadCleanReq_avg_mshr_miss_latency::total 51203.331419                       # average ReadCleanReq mshr miss latency
system.l2.ReadSharedReq_avg_mshr_miss_latency::cpu0.data 51471.757322                       # average ReadSharedReq mshr miss latency
system.l2.ReadSharedReq_avg_mshr_miss_latency::cpu1.data 51383.333333                       # average ReadSharedReq mshr miss latency
system.l2.ReadSharedReq_avg_mshr_miss_latency::cpu2.data        51375                       # average ReadSharedReq mshr miss latency
system.l2.ReadSharedReq_avg_mshr_miss_latency::total 51438.502674                       # average ReadSharedReq mshr miss latency
system.l2.demand_avg_mshr_miss_latency::cpu0.inst 51203.534031                       # average overall mshr miss latency
system.l2.demand_avg_mshr_miss_latency::cpu0.data 51152.184236                       # average overall mshr miss latency
system.l2.demand_avg_mshr_miss_latency::cpu1.inst 51260.416667                       # average overall mshr miss latency
system.l2.demand_avg_mshr_miss_latency::cpu1.data 51059.469697                       # average overall mshr miss latency
system.l2.demand_avg_mshr_miss_latency::cpu2.inst 51184.848485                       # average overall mshr miss latency
system.l2.demand_avg_mshr_miss_latency::cpu2.data 51068.357696                       # average overall mshr miss latency
system.l2.demand_avg_mshr_miss_latency::total 51131.516588                       # average overall mshr miss latency
system.l2.overall_avg_mshr_miss_latency::cpu0.inst 51203.534031                       # average overall mshr miss latency
system.l2.overall_avg_mshr_miss_latency::cpu0.data 51152.184236                       # average overall mshr miss latency
system.l2.overall_avg_mshr_miss_latency::cpu1.inst 51260.416667                       # average overall mshr miss latency
system.l2.overall_avg_mshr_miss_latency::cpu1.data 51059.469697                       # average overall mshr miss latency
system.l2.overall_avg_mshr_miss_latency::cpu2.inst 51184.848485                       # average overall mshr miss latency
system.l2.overall_avg_mshr_miss_latency::cpu2.data 51068.357696                       # average overall mshr miss latency
system.l2.overall_avg_mshr_miss_latency::total 51131.516588                       # average overall mshr miss latency
system.membus.snoop_filter.tot_requests          7958                       # Total number of requests made to the snoop filter.
system.membus.snoop_filter.hit_single_requests         1354                       # Number of requests hitting in the snoop filter with a single holder of the requested data.
system.membus.snoop_filter.hit_multi_requests            0                       # Number of requests hitting in the snoop filter with multiple (>1) holders of the requested data.
system.membus.snoop_filter.tot_snoops               0                       # Total number of snoops made to the snoop filter.
system.membus.snoop_filter.hit_single_snoops            0                       # Number of snoops hitting in the snoop filter with a single holder of the requested data.
system.membus.snoop_filter.hit_multi_snoops            0                       # Number of snoops hitting in the snoop filter with multiple (>1) holders of the requested data.
system.membus.pwrStateResidencyTicks::UNDEFINED 198043356000                       # Cumulative time (in ticks) in various power states
system.membus.trans_dist::ReadResp               2489                       # Transaction distribution
system.membus.trans_dist::WritebackDirty          784                       # Transaction distribution
system.membus.trans_dist::CleanEvict               57                       # Transaction distribution
system.membus.trans_dist::UpgradeReq              216                       # Transaction distribution
system.membus.trans_dist::SCUpgradeReq            289                       # Transaction distribution
system.membus.trans_dist::ReadExReq              3841                       # Transaction distribution
system.membus.trans_dist::ReadExResp             3841                       # Transaction distribution
system.membus.trans_dist::ReadSharedReq          2489                       # Transaction distribution
system.membus.pkt_count_system.l2.mem_side::system.physmem.port        14006                       # Packet count per connected master and slave (bytes)
system.membus.pkt_count::total                  14006                       # Packet count per connected master and slave (bytes)
system.membus.pkt_size_system.l2.mem_side::system.physmem.port       455296                       # Cumulative packet size per connected master and slave (bytes)
system.membus.pkt_size::total                  455296                       # Cumulative packet size per connected master and slave (bytes)
system.membus.snoops                              505                       # Total snoops (count)
system.membus.snoopTraffic                          0                       # Total snoop traffic (bytes)
system.membus.snoop_fanout::samples              7109                       # Request fanout histogram
system.membus.snoop_fanout::mean                    0                       # Request fanout histogram
system.membus.snoop_fanout::stdev                   0                       # Request fanout histogram
system.membus.snoop_fanout::underflows              0      0.00%      0.00% # Request fanout histogram
system.membus.snoop_fanout::0                    7109    100.00%    100.00% # Request fanout histogram
system.membus.snoop_fanout::1                       0      0.00%    100.00% # Request fanout histogram
system.membus.snoop_fanout::overflows               0      0.00%    100.00% # Request fanout histogram
system.membus.snoop_fanout::min_value               0                       # Request fanout histogram
system.membus.snoop_fanout::max_value               0                       # Request fanout histogram
system.membus.snoop_fanout::total                7109                       # Request fanout histogram
system.membus.reqLayer0.occupancy            14210012                       # Layer occupancy (ticks)
system.membus.reqLayer0.utilization               0.0                       # Layer utilization (%)
system.membus.respLayer1.occupancy           31650000                       # Layer occupancy (ticks)
system.membus.respLayer1.utilization              0.0                       # Layer utilization (%)
system.tol2bus.snoop_filter.tot_requests       394465                       # Total number of requests made to the snoop filter.
system.tol2bus.snoop_filter.hit_single_requests       164542                       # Number of requests hitting in the snoop filter with a single holder of the requested data.
system.tol2bus.snoop_filter.hit_multi_requests        94365                       # Number of requests hitting in the snoop filter with multiple (>1) holders of the requested data.
system.tol2bus.snoop_filter.tot_snoops           1720                       # Total number of snoops made to the snoop filter.
system.tol2bus.snoop_filter.hit_single_snoops         1720                       # Number of snoops hitting in the snoop filter with a single holder of the requested data.
system.tol2bus.snoop_filter.hit_multi_snoops            0                       # Number of snoops hitting in the snoop filter with multiple (>1) holders of the requested data.
system.tol2bus.pwrStateResidencyTicks::UNDEFINED 198043356000                       # Cumulative time (in ticks) in various power states
system.tol2bus.trans_dist::ReadResp            188472                       # Transaction distribution
system.tol2bus.trans_dist::WritebackDirty        16212                       # Transaction distribution
system.tol2bus.trans_dist::WritebackClean       159180                       # Transaction distribution
system.tol2bus.trans_dist::CleanEvict           22252                       # Transaction distribution
system.tol2bus.trans_dist::UpgradeReq             232                       # Transaction distribution
system.tol2bus.trans_dist::SCUpgradeReq           335                       # Transaction distribution
system.tol2bus.trans_dist::UpgradeResp            567                       # Transaction distribution
system.tol2bus.trans_dist::SCUpgradeFailReq            6                       # Transaction distribution
system.tol2bus.trans_dist::UpgradeFailResp            6                       # Transaction distribution
system.tol2bus.trans_dist::ReadExReq            10319                       # Transaction distribution
system.tol2bus.trans_dist::ReadExResp           10319                       # Transaction distribution
system.tol2bus.trans_dist::ReadCleanReq        160652                       # Transaction distribution
system.tol2bus.trans_dist::ReadSharedReq        27820                       # Transaction distribution
system.tol2bus.pkt_count_system.cpu0.icache.mem_side::system.l2.cpu_side       335156                       # Packet count per connected master and slave (bytes)
system.tol2bus.pkt_count_system.cpu0.dcache.mem_side::system.l2.cpu_side        97858                       # Packet count per connected master and slave (bytes)
system.tol2bus.pkt_count_system.cpu1.icache.mem_side::system.l2.cpu_side        77301                       # Packet count per connected master and slave (bytes)
system.tol2bus.pkt_count_system.cpu1.dcache.mem_side::system.l2.cpu_side         7539                       # Packet count per connected master and slave (bytes)
system.tol2bus.pkt_count_system.cpu2.icache.mem_side::system.l2.cpu_side        68027                       # Packet count per connected master and slave (bytes)
system.tol2bus.pkt_count_system.cpu2.dcache.mem_side::system.l2.cpu_side         6532                       # Packet count per connected master and slave (bytes)
system.tol2bus.pkt_count::total                592413                       # Packet count per connected master and slave (bytes)
system.tol2bus.pkt_size_system.cpu0.icache.mem_side::system.l2.cpu_side     14289088                       # Cumulative packet size per connected master and slave (bytes)
system.tol2bus.pkt_size_system.cpu0.dcache.mem_side::system.l2.cpu_side      2933120                       # Cumulative packet size per connected master and slave (bytes)
system.tol2bus.pkt_size_system.cpu1.icache.mem_side::system.l2.cpu_side      3287936                       # Cumulative packet size per connected master and slave (bytes)
system.tol2bus.pkt_size_system.cpu1.dcache.mem_side::system.l2.cpu_side       232128                       # Cumulative packet size per connected master and slave (bytes)
system.tol2bus.pkt_size_system.cpu2.icache.mem_side::system.l2.cpu_side      2892224                       # Cumulative packet size per connected master and slave (bytes)
system.tol2bus.pkt_size_system.cpu2.dcache.mem_side::system.l2.cpu_side       205120                       # Cumulative packet size per connected master and slave (bytes)
system.tol2bus.pkt_size::total               23839616                       # Cumulative packet size per connected master and slave (bytes)
system.tol2bus.snoops                            3959                       # Total snoops (count)
system.tol2bus.snoopTraffic                    108480                       # Total snoop traffic (bytes)
system.tol2bus.snoop_fanout::samples           201907                       # Request fanout histogram
system.tol2bus.snoop_fanout::mean            0.568272                       # Request fanout histogram
system.tol2bus.snoop_fanout::stdev           1.003860                       # Request fanout histogram
system.tol2bus.snoop_fanout::underflows             0      0.00%      0.00% # Request fanout histogram
system.tol2bus.snoop_fanout::0                 136385     67.55%     67.55% # Request fanout histogram
system.tol2bus.snoop_fanout::1                  33274     16.48%     84.03% # Request fanout histogram
system.tol2bus.snoop_fanout::2                  23480     11.63%     95.66% # Request fanout histogram
system.tol2bus.snoop_fanout::3                   3150      1.56%     97.22% # Request fanout histogram
system.tol2bus.snoop_fanout::4                   3036      1.50%     98.72% # Request fanout histogram
system.tol2bus.snoop_fanout::5                   2582      1.28%    100.00% # Request fanout histogram
system.tol2bus.snoop_fanout::6                      0      0.00%    100.00% # Request fanout histogram
system.tol2bus.snoop_fanout::overflows              0      0.00%    100.00% # Request fanout histogram
system.tol2bus.snoop_fanout::min_value              0                       # Request fanout histogram
system.tol2bus.snoop_fanout::max_value              5                       # Request fanout histogram
system.tol2bus.snoop_fanout::total             201907                       # Request fanout histogram
system.tol2bus.reqLayer0.occupancy          371843993                       # Layer occupancy (ticks)
system.tol2bus.reqLayer0.utilization              0.2                       # Layer utilization (%)
system.tol2bus.respLayer0.occupancy         167855948                       # Layer occupancy (ticks)
system.tol2bus.respLayer0.utilization             0.1                       # Layer utilization (%)
system.tol2bus.respLayer1.occupancy          49436975                       # Layer occupancy (ticks)
system.tol2bus.respLayer1.utilization             0.0                       # Layer utilization (%)
system.tol2bus.respLayer4.occupancy          38909457                       # Layer occupancy (ticks)
system.tol2bus.respLayer4.utilization             0.0                       # Layer utilization (%)
system.tol2bus.respLayer5.occupancy           4368482                       # Layer occupancy (ticks)
system.tol2bus.respLayer5.utilization             0.0                       # Layer utilization (%)
system.tol2bus.respLayer8.occupancy          34269963                       # Layer occupancy (ticks)
system.tol2bus.respLayer8.utilization             0.0                       # Layer utilization (%)
system.tol2bus.respLayer9.occupancy           3720980                       # Layer occupancy (ticks)
system.tol2bus.respLayer9.utilization             0.0                       # Layer utilization (%)

---------- End Simulation Statistics   ----------
