gem5 Simulator System.  http://gem5.org
gem5 is copyrighted software; use the --copyright option for details.

gem5 compiled Dec 20 2016 00:37:49
gem5 started Dec 20 2017 09:46:41
gem5 executing on eca-VirtualBox, pid 3811
command line: ../gem5/build/ARM/gem5.opt ../gem5/configs/example/arm-config.py.42 -n 1 -c eeg.arm.42

Global frequency set at 1000000000000 ticks per second
**** REAL SIMULATION ****
info: Entering event queue @ 0.  Starting simulation...
info: Increasing stack size by one page.
info: Increasing stack size by one page.
info: Increasing stack size by one page.
info: Increasing stack size by one page.
info: Increasing stack size by one page.
info: Increasing stack size by one page.
Running channel 0...
    Butterworth filter...
    Standard features...
    Peak 2 peak features...
    Aproximate Entropy feature...
    Hurst Coefficient feature...
    Power Spectral Density features...
Channel done
Running channel 1...
    Butterworth filter...
    Standard features...
    Peak 2 peak features...
    Aproximate Entropy feature...
    Hurst Coefficient feature...
    Power Spectral Density features...
Channel done
Running channel 2...
    Butterworth filter...
    Standard features...
    Peak 2 peak features...
    Aproximate Entropy feature...
    Hurst Coefficient feature...
    Power Spectral Density features...
Channel done
Running channel 3...
    Butterworth filter...
    Standard features...
    Peak 2 peak features...
    Aproximate Entropy feature...
    Hurst Coefficient feature...
    Power Spectral Density features...
Channel done
Running channel 4...
    Butterworth filter...
    Standard features...
    Peak 2 peak features...
    Aproximate Entropy feature...
    Hurst Coefficient feature...
    Power Spectral Density features...
Channel done
Running channel 5...
    Butterworth filter...
    Standard features...
    Peak 2 peak features...
    Aproximate Entropy feature...
    Hurst Coefficient feature...
    Power Spectral Density features...
Channel done
Running channel 6...
    Butterworth filter...
    Standard features...
    Peak 2 peak features...
    Aproximate Entropy feature...
    Hurst Coefficient feature...
    Power Spectral Density features...
Channel done
Running channel 7...
    Butterworth filter...
    Standard features...
    Peak 2 peak features...
    Aproximate Entropy feature...
    Hurst Coefficient feature...
    Power Spectral Density features...
Channel done
Running channel 8...
    Butterworth filter...
    Standard features...
    Peak 2 peak features...
    Aproximate Entropy feature...
    Hurst Coefficient feature...
    Power Spectral Density features...
Channel done
Running channel 9...
    Butterworth filter...
    Standard features...
    Peak 2 peak features...
    Aproximate Entropy feature...
    Hurst Coefficient feature...
    Power Spectral Density features...
Channel done
Running channel 10...
    Butterworth filter...
    Standard features...
    Peak 2 peak features...
    Aproximate Entropy feature...
    Hurst Coefficient feature...
    Power Spectral Density features...
Channel done
Running channel 11...
    Butterworth filter...
    Standard features...
    Peak 2 peak features...
    Aproximate Entropy feature...
    Hurst Coefficient feature...
    Power Spectral Density features...
Channel done
Running channel 12...
    Butterworth filter...
    Standard features...
    Peak 2 peak features...
    Aproximate Entropy feature...
    Hurst Coefficient feature...
    Power Spectral Density features...
Channel done
Running channel 13...
    Butterworth filter...
    Standard features...
    Peak 2 peak features...
    Aproximate Entropy feature...
    Hurst Coefficient feature...
    Power Spectral Density features...
Channel done
Running channel 14...
    Butterworth filter...
    Standard features...
    Peak 2 peak features...
    Aproximate Entropy feature...
    Hurst Coefficient feature...
    Power Spectral Density features...
Channel done
Running channel 15...
    Butterworth filter...
    Standard features...
    Peak 2 peak features...
    Aproximate Entropy feature...
    Hurst Coefficient feature...
    Power Spectral Density features...
Channel done
Running channel 16...
    Butterworth filter...
    Standard features...
    Peak 2 peak features...
    Aproximate Entropy feature...
    Hurst Coefficient feature...
    Power Spectral Density features...
Channel done
Running channel 17...
    Butterworth filter...
    Standard features...
    Peak 2 peak features...
    Aproximate Entropy feature...
    Hurst Coefficient feature...
    Power Spectral Density features...
Channel done
Running channel 18...
    Butterworth filter...
    Standard features...
    Peak 2 peak features...
    Aproximate Entropy feature...
    Hurst Coefficient feature...
    Power Spectral Density features...
Channel done
Running channel 19...
    Butterworth filter...
    Standard features...
    Peak 2 peak features...
    Aproximate Entropy feature...
    Hurst Coefficient feature...
    Power Spectral Density features...
Channel done
Running channel 20...
    Butterworth filter...
    Standard features...
    Peak 2 peak features...
    Aproximate Entropy feature...
    Hurst Coefficient feature...
    Power Spectral Density features...
Channel done
Running channel 21...
    Butterworth filter...
    Standard features...
    Peak 2 peak features...
    Aproximate Entropy feature...
    Hurst Coefficient feature...
    Power Spectral Density features...
Channel done
Running channel 22...
    Butterworth filter...
    Standard features...
    Peak 2 peak features...
    Aproximate Entropy feature...
    Hurst Coefficient feature...
    Power Spectral Density features...
Channel done

Feature 0: 0.379464
Feature 1: 36.829498
Feature 2: 6224.142578
Feature 3: 145.142853
Feature 4: 104.729141
Feature 5: 80.059616
Feature 6: 0.011738
Feature 7: 0.342995
Feature 8: 94.593994
Feature 9: 42.762974
Feature 10: 138.442657
Feature 11: 479.108002
Feature 12: 1139.541504
Feature 13: 1894.449097
Exiting @ tick 687190303000 because target called exit()
